nohup: ignoring input
/*---------------------------------------------------------------------------*\
| =========                 |                                                 |
| \\      /  F ield         | OpenFOAM: The Open Source CFD Toolbox           |
|  \\    /   O peration     | Version:  3.0.0                                 |
|   \\  /    A nd           | Web:      www.OpenFOAM.org                      |
|    \\/     M anipulation  |                                                 |
\*---------------------------------------------------------------------------*/
Build  : 3.0.0-6abec57f5449
Exec   : ../../../bin/actuatorFoam -parallel
Date   : Dec 17 2015
Time   : 06:03:15
Host   : "yeager"
PID    : 21958
Case   : /home/pychuang/Dropbox/MyGit/ActuatorFOAM/cases/QuiescentFlow/HighTol
nProcs : 12
Slaves : 
11
(
"yeager.21961"
"yeager.21962"
"yeager.21963"
"yeager.21964"
"yeager.21965"
"yeager.21969"
"yeager.21970"
"yeager.21971"
"yeager.21972"
"yeager.21974"
"yeager.21976"
)

Pstream initialized with:
    floatTransfer      : 0
    nProcsSimpleSum    : 0
    commsType          : nonBlocking
    polling iterations : 0
sigFpe : Enabling floating point exception trapping (FOAM_SIGFPE).
fileModificationChecking : Monitoring run-time modified files using timeStampMaster
allowSystemOperations : Allowing user-supplied system call operations

// * * * * * * * * * * * * * * * * * * * * * * * * * * * * * * * * * * * * * //
Create time

Create default mesh for time = 0

Create fluid mesh for region air for time = 0

Create solid mesh for region solid for time = 0


Reading setting for solvers

PISO: Operating solver in PISO mode


PISO: Operating solver in PISO mode


PISO: Operating solver in PISO mode


Reading userDefinedParameters

....permiticity of free space, eps0
    eps0 = eps0 [-1 -3 4 0 0 2 0] 8.85419e-12
....electric potential coefficient of input sine signal, epMax
    epMax = epMax [0 0 0 0 0 0 0] 5000
....charge density coefficient of input sine signal, rhocMax
    rhocMax = rhocMax [0 0 0 0 0 0 0] 0.0075
....frequency of input sine signal, omega
    omega = omega [0 0 -1 0 0 0 0] 4500

Reading transport properties for region air

....density, rho
    rho = rhoFluid [1 -3 0 0 0 0 0] 1.1839
....kinematic viscosity, nu
    nu = nuFluid [0 2 -1 0 0 0 0] 1.568e-05
....relative permitivity, eps
    eps = epsFluid [0 0 0 0 0 0 0] 1
....Debye length, lambda
    lambda = lambdaFluid [0 1 0 0 0 0 0] 0.00017

Reading transport properties for region solid

....relative permitivity, eps
    eps = epsSolid [0 0 0 0 0 0 0] 2.7
....Debye length, lambda
    lambda = lambdaSolid [0 1 0 0 0 0 0] 1e+14

Reading initial field for region air

....electric field, ep
....charge density, rhoc
....flow velocity, U
....flow pressure, p
....generate eps scalar field, epsField
....reading/calculating face flux field, phi
....setting reference pressure cell and value

Reading initial field for region solid

....electric field, ep
....charge density, rhoc
....generate eps scalar field, epsField

Calculating dimensionless electric potential, ep

Iteration = 1

FDICPCG:  Solving for ep, Initial residual = 1, Final residual = 9.80676e-09, No Iterations 860
smoothSolver:  Solving for ep, Initial residual = 1, Final residual = 0.151444, No Iterations 10
Iteration = 2

FDICPCG:  Solving for ep, Initial residual = 0.000652044, Final residual = 9.72136e-09, No Iterations 607
smoothSolver:  Solving for ep, Initial residual = 0.0686344, Final residual = 0.0474167, No Iterations 10
Iteration = 3

FDICPCG:  Solving for ep, Initial residual = 0.000419943, Final residual = 9.95096e-09, No Iterations 595
smoothSolver:  Solving for ep, Initial residual = 0.0477842, Final residual = 0.0386733, No Iterations 10
Iteration = 4

FDICPCG:  Solving for ep, Initial residual = 0.000325217, Final residual = 9.66194e-09, No Iterations 587
smoothSolver:  Solving for ep, Initial residual = 0.0388367, Final residual = 0.0334375, No Iterations 10
Iteration = 5

FDICPCG:  Solving for ep, Initial residual = 0.000269684, Final residual = 9.80726e-09, No Iterations 583
smoothSolver:  Solving for ep, Initial residual = 0.0335536, Final residual = 0.0298492, No Iterations 10
Iteration = 6

FDICPCG:  Solving for ep, Initial residual = 0.000231936, Final residual = 9.48619e-09, No Iterations 581
smoothSolver:  Solving for ep, Initial residual = 0.029948, Final residual = 0.0271837, No Iterations 10
Iteration = 7

FDICPCG:  Solving for ep, Initial residual = 0.000204252, Final residual = 9.99803e-09, No Iterations 578
smoothSolver:  Solving for ep, Initial residual = 0.0272738, Final residual = 0.0250963, No Iterations 10
Iteration = 8

FDICPCG:  Solving for ep, Initial residual = 0.000182974, Final residual = 9.8086e-09, No Iterations 576
smoothSolver:  Solving for ep, Initial residual = 0.0251808, Final residual = 0.0233997, No Iterations 10
Iteration = 9

FDICPCG:  Solving for ep, Initial residual = 0.000166081, Final residual = 9.9917e-09, No Iterations 573
smoothSolver:  Solving for ep, Initial residual = 0.0234801, Final residual = 0.0219826, No Iterations 10
Iteration = 10

FDICPCG:  Solving for ep, Initial residual = 0.00015234, Final residual = 9.8834e-09, No Iterations 571
smoothSolver:  Solving for ep, Initial residual = 0.0220599, Final residual = 0.0207741, No Iterations 10
Iteration = 11

FDICPCG:  Solving for ep, Initial residual = 0.000140945, Final residual = 9.65529e-09, No Iterations 570
smoothSolver:  Solving for ep, Initial residual = 0.0208487, Final residual = 0.0197263, No Iterations 10
Iteration = 12

FDICPCG:  Solving for ep, Initial residual = 0.000131346, Final residual = 9.96188e-09, No Iterations 567
smoothSolver:  Solving for ep, Initial residual = 0.0197988, Final residual = 0.0188059, No Iterations 10
Iteration = 13

FDICPCG:  Solving for ep, Initial residual = 0.000123152, Final residual = 9.9291e-09, No Iterations 566
smoothSolver:  Solving for ep, Initial residual = 0.0188764, Final residual = 0.0179884, No Iterations 10
Iteration = 14

FDICPCG:  Solving for ep, Initial residual = 0.000116076, Final residual = 9.91293e-09, No Iterations 564
smoothSolver:  Solving for ep, Initial residual = 0.0180573, Final residual = 0.0172557, No Iterations 10
Iteration = 15

FDICPCG:  Solving for ep, Initial residual = 0.000109906, Final residual = 9.90157e-09, No Iterations 560
smoothSolver:  Solving for ep, Initial residual = 0.0173231, Final residual = 0.016594, No Iterations 10
Iteration = 16

FDICPCG:  Solving for ep, Initial residual = 0.000104478, Final residual = 9.62254e-09, No Iterations 560
smoothSolver:  Solving for ep, Initial residual = 0.0166601, Final residual = 0.0159923, No Iterations 10
Iteration = 17

FDICPCG:  Solving for ep, Initial residual = 9.96656e-05, Final residual = 9.99986e-09, No Iterations 558
smoothSolver:  Solving for ep, Initial residual = 0.0160573, Final residual = 0.0154422, No Iterations 10
Iteration = 18

FDICPCG:  Solving for ep, Initial residual = 9.53714e-05, Final residual = 9.99492e-09, No Iterations 557
smoothSolver:  Solving for ep, Initial residual = 0.015506, Final residual = 0.0149365, No Iterations 10
Iteration = 19

FDICPCG:  Solving for ep, Initial residual = 9.15149e-05, Final residual = 9.55254e-09, No Iterations 557
smoothSolver:  Solving for ep, Initial residual = 0.0149994, Final residual = 0.0144698, No Iterations 10
Iteration = 20

FDICPCG:  Solving for ep, Initial residual = 8.80321e-05, Final residual = 9.97972e-09, No Iterations 555
smoothSolver:  Solving for ep, Initial residual = 0.0145317, Final residual = 0.0140371, No Iterations 10
Iteration = 21

FDICPCG:  Solving for ep, Initial residual = 8.48724e-05, Final residual = 9.54843e-09, No Iterations 555
smoothSolver:  Solving for ep, Initial residual = 0.0140982, Final residual = 0.0136347, No Iterations 10
Iteration = 22

FDICPCG:  Solving for ep, Initial residual = 8.19916e-05, Final residual = 9.95628e-09, No Iterations 549
smoothSolver:  Solving for ep, Initial residual = 0.013695, Final residual = 0.0132592, No Iterations 10
Iteration = 23

FDICPCG:  Solving for ep, Initial residual = 7.93555e-05, Final residual = 9.81075e-09, No Iterations 548
smoothSolver:  Solving for ep, Initial residual = 0.0133187, Final residual = 0.0129077, No Iterations 10
Iteration = 24

FDICPCG:  Solving for ep, Initial residual = 7.69333e-05, Final residual = 9.80379e-09, No Iterations 547
smoothSolver:  Solving for ep, Initial residual = 0.0129665, Final residual = 0.0125779, No Iterations 10
Iteration = 25

FDICPCG:  Solving for ep, Initial residual = 7.47007e-05, Final residual = 9.91765e-09, No Iterations 546
smoothSolver:  Solving for ep, Initial residual = 0.012636, Final residual = 0.0122677, No Iterations 10
Iteration = 26

FDICPCG:  Solving for ep, Initial residual = 7.26362e-05, Final residual = 9.9184e-09, No Iterations 545
smoothSolver:  Solving for ep, Initial residual = 0.0123252, Final residual = 0.0119752, No Iterations 10
Iteration = 27

FDICPCG:  Solving for ep, Initial residual = 7.07216e-05, Final residual = 9.98545e-09, No Iterations 541
smoothSolver:  Solving for ep, Initial residual = 0.0120321, Final residual = 0.0116989, No Iterations 10
Iteration = 28

FDICPCG:  Solving for ep, Initial residual = 6.89413e-05, Final residual = 9.95717e-09, No Iterations 541
smoothSolver:  Solving for ep, Initial residual = 0.0117551, Final residual = 0.0114373, No Iterations 10
Iteration = 29

FDICPCG:  Solving for ep, Initial residual = 6.72816e-05, Final residual = 9.88893e-09, No Iterations 540
smoothSolver:  Solving for ep, Initial residual = 0.011493, Final residual = 0.0111893, No Iterations 10
Iteration = 30

FDICPCG:  Solving for ep, Initial residual = 6.57311e-05, Final residual = 9.66556e-09, No Iterations 540
smoothSolver:  Solving for ep, Initial residual = 0.0112444, Final residual = 0.0109537, No Iterations 10
Iteration = 31

FDICPCG:  Solving for ep, Initial residual = 6.42792e-05, Final residual = 9.98397e-09, No Iterations 539
smoothSolver:  Solving for ep, Initial residual = 0.0110083, Final residual = 0.0107296, No Iterations 10
Iteration = 32

FDICPCG:  Solving for ep, Initial residual = 6.29175e-05, Final residual = 9.6563e-09, No Iterations 539
smoothSolver:  Solving for ep, Initial residual = 0.0107837, Final residual = 0.0105161, No Iterations 10
Iteration = 33

FDICPCG:  Solving for ep, Initial residual = 6.16369e-05, Final residual = 9.6186e-09, No Iterations 539
smoothSolver:  Solving for ep, Initial residual = 0.0105697, Final residual = 0.0103124, No Iterations 10
Iteration = 34

FDICPCG:  Solving for ep, Initial residual = 6.04315e-05, Final residual = 9.83232e-09, No Iterations 538
smoothSolver:  Solving for ep, Initial residual = 0.0103656, Final residual = 0.0101178, No Iterations 10
Iteration = 35

FDICPCG:  Solving for ep, Initial residual = 5.92947e-05, Final residual = 9.94081e-09, No Iterations 537
smoothSolver:  Solving for ep, Initial residual = 0.0101705, Final residual = 0.00993171, No Iterations 10
Iteration = 36

FDICPCG:  Solving for ep, Initial residual = 5.82209e-05, Final residual = 9.99382e-09, No Iterations 536
smoothSolver:  Solving for ep, Initial residual = 0.00998402, Final residual = 0.00975353, No Iterations 10
Iteration = 37

FDICPCG:  Solving for ep, Initial residual = 5.72049e-05, Final residual = 9.44859e-09, No Iterations 537
smoothSolver:  Solving for ep, Initial residual = 0.00980543, Final residual = 0.00958273, No Iterations 10
Iteration = 38

FDICPCG:  Solving for ep, Initial residual = 5.62418e-05, Final residual = 9.34641e-09, No Iterations 537
smoothSolver:  Solving for ep, Initial residual = 0.00963423, Final residual = 0.00941886, No Iterations 10
Iteration = 39

FDICPCG:  Solving for ep, Initial residual = 5.53285e-05, Final residual = 9.91052e-09, No Iterations 533
smoothSolver:  Solving for ep, Initial residual = 0.00946996, Final residual = 0.00926146, No Iterations 10
Iteration = 40

FDICPCG:  Solving for ep, Initial residual = 5.44617e-05, Final residual = 9.85928e-09, No Iterations 533
smoothSolver:  Solving for ep, Initial residual = 0.00931218, Final residual = 0.00911014, No Iterations 10
Iteration = 41

FDICPCG:  Solving for ep, Initial residual = 5.36366e-05, Final residual = 9.6197e-09, No Iterations 533
smoothSolver:  Solving for ep, Initial residual = 0.0091605, Final residual = 0.00896455, No Iterations 10
Iteration = 42

FDICPCG:  Solving for ep, Initial residual = 5.28509e-05, Final residual = 9.56056e-09, No Iterations 533
smoothSolver:  Solving for ep, Initial residual = 0.00901455, Final residual = 0.00882433, No Iterations 10
Iteration = 43

FDICPCG:  Solving for ep, Initial residual = 5.21021e-05, Final residual = 9.87115e-09, No Iterations 532
smoothSolver:  Solving for ep, Initial residual = 0.00887399, Final residual = 0.0086892, No Iterations 10
Iteration = 44

FDICPCG:  Solving for ep, Initial residual = 5.13879e-05, Final residual = 9.95323e-09, No Iterations 531
smoothSolver:  Solving for ep, Initial residual = 0.00873852, Final residual = 0.00855886, No Iterations 10
Iteration = 45

FDICPCG:  Solving for ep, Initial residual = 5.07054e-05, Final residual = 9.7603e-09, No Iterations 531
smoothSolver:  Solving for ep, Initial residual = 0.00860785, Final residual = 0.00843305, No Iterations 10
Iteration = 46

FDICPCG:  Solving for ep, Initial residual = 5.00527e-05, Final residual = 9.70691e-09, No Iterations 531
smoothSolver:  Solving for ep, Initial residual = 0.00848173, Final residual = 0.00831152, No Iterations 10
Iteration = 47

FDICPCG:  Solving for ep, Initial residual = 4.94281e-05, Final residual = 9.99276e-09, No Iterations 530
smoothSolver:  Solving for ep, Initial residual = 0.00835989, Final residual = 0.00819406, No Iterations 10

Calculating dimensionless charge density, rhoc

Iteration = 1

smoothSolver:  Solving for rhoc, Initial residual = 1, Final residual = 0.12947, No Iterations 10
smoothSolver:  Solving for rhoc, Initial residual = 1, Final residual = 0.264754, No Iterations 5
Iteration = 2

smoothSolver:  Solving for rhoc, Initial residual = 0.0620365, Final residual = 0.0329374, No Iterations 10
smoothSolver:  Solving for rhoc, Initial residual = 0.256102, Final residual = 0.0787432, No Iterations 5
Iteration = 3

smoothSolver:  Solving for rhoc, Initial residual = 0.0403166, Final residual = 0.0241496, No Iterations 10
smoothSolver:  Solving for rhoc, Initial residual = 0.0874546, Final residual = 0.0345785, No Iterations 5
Iteration = 4

smoothSolver:  Solving for rhoc, Initial residual = 0.0300809, Final residual = 0.0194047, No Iterations 10
smoothSolver:  Solving for rhoc, Initial residual = 0.0459265, Final residual = 0.021575, No Iterations 5
Iteration = 5

smoothSolver:  Solving for rhoc, Initial residual = 0.0240696, Final residual = 0.0164227, No Iterations 10
smoothSolver:  Solving for rhoc, Initial residual = 0.0290694, Final residual = 0.0153881, No Iterations 5
Iteration = 6

smoothSolver:  Solving for rhoc, Initial residual = 0.0200993, Final residual = 0.0143532, No Iterations 10
smoothSolver:  Solving for rhoc, Initial residual = 0.0203927, Final residual = 0.0117765, No Iterations 5
Iteration = 7

smoothSolver:  Solving for rhoc, Initial residual = 0.0172839, Final residual = 0.0128244, No Iterations 10
smoothSolver:  Solving for rhoc, Initial residual = 0.0152587, Final residual = 0.00941542, No Iterations 5
Iteration = 8

smoothSolver:  Solving for rhoc, Initial residual = 0.0151914, Final residual = 0.0116463, No Iterations 10
smoothSolver:  Solving for rhoc, Initial residual = 0.0119311, Final residual = 0.00775637, No Iterations 5
Iteration = 9

smoothSolver:  Solving for rhoc, Initial residual = 0.0135819, Final residual = 0.0107096, No Iterations 10
smoothSolver:  Solving for rhoc, Initial residual = 0.0096318, Final residual = 0.00653081, No Iterations 5
Iteration = 10

smoothSolver:  Solving for rhoc, Initial residual = 0.0123104, Final residual = 0.00994629, No Iterations 10
smoothSolver:  Solving for rhoc, Initial residual = 0.00796606, Final residual = 0.00559154, No Iterations 5
Iteration = 11

smoothSolver:  Solving for rhoc, Initial residual = 0.0112838, Final residual = 0.00931161, No Iterations 10
smoothSolver:  Solving for rhoc, Initial residual = 0.00671446, Final residual = 0.00485106, No Iterations 5
Iteration = 12

smoothSolver:  Solving for rhoc, Initial residual = 0.0104395, Final residual = 0.00877497, No Iterations 10
smoothSolver:  Solving for rhoc, Initial residual = 0.00574638, Final residual = 0.00425407, No Iterations 5
Iteration = 13

smoothSolver:  Solving for rhoc, Initial residual = 0.00973408, Final residual = 0.00831473, No Iterations 10
smoothSolver:  Solving for rhoc, Initial residual = 0.0049797, Final residual = 0.0037639, No Iterations 5
Iteration = 14

smoothSolver:  Solving for rhoc, Initial residual = 0.00913662, Final residual = 0.00791515, No Iterations 10
smoothSolver:  Solving for rhoc, Initial residual = 0.0043605, Final residual = 0.00335528, No Iterations 5
Iteration = 15

smoothSolver:  Solving for rhoc, Initial residual = 0.00862439, Final residual = 0.00756453, No Iterations 10
smoothSolver:  Solving for rhoc, Initial residual = 0.00385204, Final residual = 0.00301025, No Iterations 5
Iteration = 16

smoothSolver:  Solving for rhoc, Initial residual = 0.00818052, Final residual = 0.00725398, No Iterations 10
smoothSolver:  Solving for rhoc, Initial residual = 0.00342856, Final residual = 0.00271567, No Iterations 5
Iteration = 17

smoothSolver:  Solving for rhoc, Initial residual = 0.00779216, Final residual = 0.00697667, No Iterations 10
smoothSolver:  Solving for rhoc, Initial residual = 0.0030715, Final residual = 0.00246177, No Iterations 5
Iteration = 18

smoothSolver:  Solving for rhoc, Initial residual = 0.00744943, Final residual = 0.00672723, No Iterations 10
smoothSolver:  Solving for rhoc, Initial residual = 0.00276721, Final residual = 0.00224108, No Iterations 5
Iteration = 19

smoothSolver:  Solving for rhoc, Initial residual = 0.00714462, Final residual = 0.00650138, No Iterations 10
smoothSolver:  Solving for rhoc, Initial residual = 0.00250544, Final residual = 0.00204784, No Iterations 5
Iteration = 20

smoothSolver:  Solving for rhoc, Initial residual = 0.00687164, Final residual = 0.00629573, No Iterations 10
smoothSolver:  Solving for rhoc, Initial residual = 0.00227836, Final residual = 0.00187753, No Iterations 5
Iteration = 21

smoothSolver:  Solving for rhoc, Initial residual = 0.00662558, Final residual = 0.00610747, No Iterations 10
smoothSolver:  Solving for rhoc, Initial residual = 0.00207991, Final residual = 0.00172653, No Iterations 5
Iteration = 22

smoothSolver:  Solving for rhoc, Initial residual = 0.00640253, Final residual = 0.00593432, No Iterations 10
smoothSolver:  Solving for rhoc, Initial residual = 0.00190531, Final residual = 0.00159195, No Iterations 5
Iteration = 23

smoothSolver:  Solving for rhoc, Initial residual = 0.00619925, Final residual = 0.00577439, No Iterations 10
smoothSolver:  Solving for rhoc, Initial residual = 0.00175079, Final residual = 0.00147142, No Iterations 5
Iteration = 24

smoothSolver:  Solving for rhoc, Initial residual = 0.00601311, Final residual = 0.0056261, No Iterations 10
smoothSolver:  Solving for rhoc, Initial residual = 0.00161329, Final residual = 0.00136302, No Iterations 5
Iteration = 25

smoothSolver:  Solving for rhoc, Initial residual = 0.00584191, Final residual = 0.00548811, No Iterations 10
smoothSolver:  Solving for rhoc, Initial residual = 0.00149034, Final residual = 0.00126514, No Iterations 5
Iteration = 26

smoothSolver:  Solving for rhoc, Initial residual = 0.00568382, Final residual = 0.00535931, No Iterations 10
smoothSolver:  Solving for rhoc, Initial residual = 0.00137992, Final residual = 0.00117644, No Iterations 5
Iteration = 27

smoothSolver:  Solving for rhoc, Initial residual = 0.00553729, Final residual = 0.00523871, No Iterations 10
smoothSolver:  Solving for rhoc, Initial residual = 0.00128034, Final residual = 0.00109579, No Iterations 5
Iteration = 28

smoothSolver:  Solving for rhoc, Initial residual = 0.00540102, Final residual = 0.00512548, No Iterations 10
smoothSolver:  Solving for rhoc, Initial residual = 0.0011902, Final residual = 0.00102224, No Iterations 5
Iteration = 29

smoothSolver:  Solving for rhoc, Initial residual = 0.00527389, Final residual = 0.00501892, No Iterations 10
smoothSolver:  Solving for rhoc, Initial residual = 0.00110834, Final residual = 0.000954974, No Iterations 5
Iteration = 30

smoothSolver:  Solving for rhoc, Initial residual = 0.00515494, Final residual = 0.00491839, No Iterations 10
smoothSolver:  Solving for rhoc, Initial residual = 0.00103376, Final residual = 0.000893305, No Iterations 5
Iteration = 31

smoothSolver:  Solving for rhoc, Initial residual = 0.00504334, Final residual = 0.00482335, No Iterations 10
smoothSolver:  Solving for rhoc, Initial residual = 0.000965619, Final residual = 0.00083663, No Iterations 5
Iteration = 32

smoothSolver:  Solving for rhoc, Initial residual = 0.00493839, Final residual = 0.00473332, No Iterations 10
smoothSolver:  Solving for rhoc, Initial residual = 0.000903199, Final residual = 0.000784429, No Iterations 5
Iteration = 33

smoothSolver:  Solving for rhoc, Initial residual = 0.00483945, Final residual = 0.00464787, No Iterations 10
smoothSolver:  Solving for rhoc, Initial residual = 0.000845878, Final residual = 0.000736253, No Iterations 5
Iteration = 34

smoothSolver:  Solving for rhoc, Initial residual = 0.00474597, Final residual = 0.00456662, No Iterations 10
smoothSolver:  Solving for rhoc, Initial residual = 0.000793122, Final residual = 0.000691706, No Iterations 5
Iteration = 35

smoothSolver:  Solving for rhoc, Initial residual = 0.00465748, Final residual = 0.00448926, No Iterations 10
smoothSolver:  Solving for rhoc, Initial residual = 0.000744466, Final residual = 0.000650443, No Iterations 5
Iteration = 36

smoothSolver:  Solving for rhoc, Initial residual = 0.00457356, Final residual = 0.00441547, No Iterations 10
smoothSolver:  Solving for rhoc, Initial residual = 0.000699502, Final residual = 0.000612159, No Iterations 5
Iteration = 37

smoothSolver:  Solving for rhoc, Initial residual = 0.00449382, Final residual = 0.004345, No Iterations 10
smoothSolver:  Solving for rhoc, Initial residual = 0.000657878, Final residual = 0.000576585, No Iterations 5
Iteration = 38

smoothSolver:  Solving for rhoc, Initial residual = 0.00441793, Final residual = 0.00427759, No Iterations 10
smoothSolver:  Solving for rhoc, Initial residual = 0.000619279, Final residual = 0.000543481, No Iterations 5
Iteration = 39

smoothSolver:  Solving for rhoc, Initial residual = 0.0043456, Final residual = 0.00421304, No Iterations 10
smoothSolver:  Solving for rhoc, Initial residual = 0.00058343, Final residual = 0.000512637, No Iterations 5
Iteration = 40

smoothSolver:  Solving for rhoc, Initial residual = 0.00427656, Final residual = 0.00415116, No Iterations 10
smoothSolver:  Solving for rhoc, Initial residual = 0.000550086, Final residual = 0.000483861, No Iterations 5
Iteration = 41

smoothSolver:  Solving for rhoc, Initial residual = 0.00421056, Final residual = 0.00409175, No Iterations 10
smoothSolver:  Solving for rhoc, Initial residual = 0.00051903, Final residual = 0.000456983, No Iterations 5
Iteration = 42

smoothSolver:  Solving for rhoc, Initial residual = 0.00414739, Final residual = 0.00403467, No Iterations 10
smoothSolver:  Solving for rhoc, Initial residual = 0.000490069, Final residual = 0.000431852, No Iterations 5
Iteration = 43

smoothSolver:  Solving for rhoc, Initial residual = 0.00408685, Final residual = 0.00397976, No Iterations 10
smoothSolver:  Solving for rhoc, Initial residual = 0.000463027, Final residual = 0.000408329, No Iterations 5
Iteration = 44

smoothSolver:  Solving for rhoc, Initial residual = 0.00402877, Final residual = 0.0039269, No Iterations 10
smoothSolver:  Solving for rhoc, Initial residual = 0.000437751, Final residual = 0.00038629, No Iterations 5
Iteration = 45

smoothSolver:  Solving for rhoc, Initial residual = 0.00397298, Final residual = 0.00387595, No Iterations 10
smoothSolver:  Solving for rhoc, Initial residual = 0.0004141, Final residual = 0.000365623, No Iterations 5
Iteration = 46

smoothSolver:  Solving for rhoc, Initial residual = 0.00391935, Final residual = 0.00382681, No Iterations 10
smoothSolver:  Solving for rhoc, Initial residual = 0.000391948, Final residual = 0.000346226, No Iterations 5
Iteration = 47

smoothSolver:  Solving for rhoc, Initial residual = 0.00386772, Final residual = 0.00377937, No Iterations 10
smoothSolver:  Solving for rhoc, Initial residual = 0.00037118, Final residual = 0.000328007, No Iterations 5
Iteration = 48

smoothSolver:  Solving for rhoc, Initial residual = 0.00381799, Final residual = 0.00373354, No Iterations 10
smoothSolver:  Solving for rhoc, Initial residual = 0.000351692, Final residual = 0.00031088, No Iterations 5
Iteration = 49

smoothSolver:  Solving for rhoc, Initial residual = 0.00377003, Final residual = 0.00368923, No Iterations 10
smoothSolver:  Solving for rhoc, Initial residual = 0.000333392, Final residual = 0.00029477, No Iterations 5
Iteration = 50

smoothSolver:  Solving for rhoc, Initial residual = 0.00372375, Final residual = 0.00364635, No Iterations 10
smoothSolver:  Solving for rhoc, Initial residual = 0.000316193, Final residual = 0.000279605, No Iterations 5
Iteration = 51

smoothSolver:  Solving for rhoc, Initial residual = 0.00367905, Final residual = 0.00360484, No Iterations 10
smoothSolver:  Solving for rhoc, Initial residual = 0.000300018, Final residual = 0.000265321, No Iterations 5
Iteration = 52

smoothSolver:  Solving for rhoc, Initial residual = 0.00363585, Final residual = 0.00356462, No Iterations 10
smoothSolver:  Solving for rhoc, Initial residual = 0.000284794, Final residual = 0.000251859, No Iterations 5
Iteration = 53

smoothSolver:  Solving for rhoc, Initial residual = 0.00359405, Final residual = 0.00352562, No Iterations 10
smoothSolver:  Solving for rhoc, Initial residual = 0.000270456, Final residual = 0.000239164, No Iterations 5
Iteration = 54

smoothSolver:  Solving for rhoc, Initial residual = 0.00355359, Final residual = 0.00348779, No Iterations 10
smoothSolver:  Solving for rhoc, Initial residual = 0.000256946, Final residual = 0.000227186, No Iterations 5
Iteration = 55

smoothSolver:  Solving for rhoc, Initial residual = 0.0035144, Final residual = 0.00345107, No Iterations 10
smoothSolver:  Solving for rhoc, Initial residual = 0.000244206, Final residual = 0.000215879, No Iterations 5
Iteration = 56

smoothSolver:  Solving for rhoc, Initial residual = 0.00347641, Final residual = 0.00341541, No Iterations 10
smoothSolver:  Solving for rhoc, Initial residual = 0.000232188, Final residual = 0.0002052, No Iterations 5
Iteration = 57

smoothSolver:  Solving for rhoc, Initial residual = 0.00343956, Final residual = 0.00338075, No Iterations 10
smoothSolver:  Solving for rhoc, Initial residual = 0.000220843, Final residual = 0.00019511, No Iterations 5
Iteration = 58

smoothSolver:  Solving for rhoc, Initial residual = 0.00340379, Final residual = 0.00334705, No Iterations 10
smoothSolver:  Solving for rhoc, Initial residual = 0.000210129, Final residual = 0.000185572, No Iterations 5
Iteration = 59

smoothSolver:  Solving for rhoc, Initial residual = 0.00336906, Final residual = 0.00331427, No Iterations 10
smoothSolver:  Solving for rhoc, Initial residual = 0.000200007, Final residual = 0.000176552, No Iterations 5
Iteration = 60

smoothSolver:  Solving for rhoc, Initial residual = 0.00333531, Final residual = 0.00328237, No Iterations 10
smoothSolver:  Solving for rhoc, Initial residual = 0.000190438, Final residual = 0.000168019, No Iterations 5
Iteration = 61

smoothSolver:  Solving for rhoc, Initial residual = 0.00330251, Final residual = 0.00325131, No Iterations 10
smoothSolver:  Solving for rhoc, Initial residual = 0.00018139, Final residual = 0.000159943, No Iterations 5
Iteration = 62

smoothSolver:  Solving for rhoc, Initial residual = 0.00327059, Final residual = 0.00322105, No Iterations 10
smoothSolver:  Solving for rhoc, Initial residual = 0.000172829, Final residual = 0.000152298, No Iterations 5
Iteration = 63

smoothSolver:  Solving for rhoc, Initial residual = 0.00323954, Final residual = 0.00319157, No Iterations 10
smoothSolver:  Solving for rhoc, Initial residual = 0.000164727, Final residual = 0.000145057, No Iterations 5
Iteration = 64

smoothSolver:  Solving for rhoc, Initial residual = 0.0032093, Final residual = 0.00316282, No Iterations 10
smoothSolver:  Solving for rhoc, Initial residual = 0.000157057, Final residual = 0.000138197, No Iterations 5
Iteration = 65

smoothSolver:  Solving for rhoc, Initial residual = 0.00317985, Final residual = 0.00313477, No Iterations 10
smoothSolver:  Solving for rhoc, Initial residual = 0.000149792, Final residual = 0.000131696, No Iterations 5
Iteration = 66

smoothSolver:  Solving for rhoc, Initial residual = 0.00315115, Final residual = 0.00310741, No Iterations 10
smoothSolver:  Solving for rhoc, Initial residual = 0.000142909, Final residual = 0.000125534, No Iterations 5
Iteration = 67

smoothSolver:  Solving for rhoc, Initial residual = 0.00312316, Final residual = 0.0030807, No Iterations 10
smoothSolver:  Solving for rhoc, Initial residual = 0.000136386, Final residual = 0.000119691, No Iterations 5
Iteration = 68

smoothSolver:  Solving for rhoc, Initial residual = 0.00309587, Final residual = 0.00305462, No Iterations 10
smoothSolver:  Solving for rhoc, Initial residual = 0.000130201, Final residual = 0.00011415, No Iterations 5
Iteration = 69

smoothSolver:  Solving for rhoc, Initial residual = 0.00306923, Final residual = 0.00302914, No Iterations 10
smoothSolver:  Solving for rhoc, Initial residual = 0.000124337, Final residual = 0.000108892, No Iterations 5
Iteration = 70

smoothSolver:  Solving for rhoc, Initial residual = 0.00304324, Final residual = 0.00300425, No Iterations 10
smoothSolver:  Solving for rhoc, Initial residual = 0.000118774, Final residual = 0.000103903, No Iterations 5
Iteration = 71

smoothSolver:  Solving for rhoc, Initial residual = 0.00301785, Final residual = 0.00297991, No Iterations 10
smoothSolver:  Solving for rhoc, Initial residual = 0.000113495, Final residual = 9.91683e-05, No Iterations 5
Iteration = 72

smoothSolver:  Solving for rhoc, Initial residual = 0.00299305, Final residual = 0.00295611, No Iterations 10
smoothSolver:  Solving for rhoc, Initial residual = 0.000108485, Final residual = 9.46728e-05, No Iterations 5
Iteration = 73

smoothSolver:  Solving for rhoc, Initial residual = 0.00296881, Final residual = 0.00293283, No Iterations 10
smoothSolver:  Solving for rhoc, Initial residual = 0.000103729, Final residual = 9.0404e-05, No Iterations 5
Iteration = 74

smoothSolver:  Solving for rhoc, Initial residual = 0.00294512, Final residual = 0.00291006, No Iterations 10
smoothSolver:  Solving for rhoc, Initial residual = 9.92132e-05, Final residual = 8.63496e-05, No Iterations 5
Iteration = 75

smoothSolver:  Solving for rhoc, Initial residual = 0.00292195, Final residual = 0.00288777, No Iterations 10
smoothSolver:  Solving for rhoc, Initial residual = 9.49237e-05, Final residual = 8.2498e-05, No Iterations 5
Iteration = 76

smoothSolver:  Solving for rhoc, Initial residual = 0.00289929, Final residual = 0.00286594, No Iterations 10
smoothSolver:  Solving for rhoc, Initial residual = 9.08486e-05, Final residual = 7.88384e-05, No Iterations 5
Iteration = 77

smoothSolver:  Solving for rhoc, Initial residual = 0.00287712, Final residual = 0.00284457, No Iterations 10
smoothSolver:  Solving for rhoc, Initial residual = 8.69763e-05, Final residual = 7.53606e-05, No Iterations 5
Iteration = 78

smoothSolver:  Solving for rhoc, Initial residual = 0.00285541, Final residual = 0.00282363, No Iterations 10
smoothSolver:  Solving for rhoc, Initial residual = 8.32959e-05, Final residual = 7.20548e-05, No Iterations 5
Iteration = 79

smoothSolver:  Solving for rhoc, Initial residual = 0.00283416, Final residual = 0.00280311, No Iterations 10
smoothSolver:  Solving for rhoc, Initial residual = 7.97972e-05, Final residual = 6.89121e-05, No Iterations 5
Iteration = 80

smoothSolver:  Solving for rhoc, Initial residual = 0.00281334, Final residual = 0.002783, No Iterations 10
smoothSolver:  Solving for rhoc, Initial residual = 7.64705e-05, Final residual = 6.59238e-05, No Iterations 5
Iteration = 81

smoothSolver:  Solving for rhoc, Initial residual = 0.00279295, Final residual = 0.00276329, No Iterations 10
smoothSolver:  Solving for rhoc, Initial residual = 7.33067e-05, Final residual = 6.3082e-05, No Iterations 5
Iteration = 82

smoothSolver:  Solving for rhoc, Initial residual = 0.00277296, Final residual = 0.00274396, No Iterations 10
smoothSolver:  Solving for rhoc, Initial residual = 7.02972e-05, Final residual = 6.03789e-05, No Iterations 5
Iteration = 83

smoothSolver:  Solving for rhoc, Initial residual = 0.00275338, Final residual = 0.002725, No Iterations 10
smoothSolver:  Solving for rhoc, Initial residual = 6.74341e-05, Final residual = 5.78074e-05, No Iterations 5
Iteration = 84

smoothSolver:  Solving for rhoc, Initial residual = 0.00273417, Final residual = 0.00270639, No Iterations 10
smoothSolver:  Solving for rhoc, Initial residual = 6.47096e-05, Final residual = 5.53608e-05, No Iterations 5
Iteration = 85

smoothSolver:  Solving for rhoc, Initial residual = 0.00271534, Final residual = 0.00268814, No Iterations 10
smoothSolver:  Solving for rhoc, Initial residual = 6.21165e-05, Final residual = 5.30325e-05, No Iterations 5
Iteration = 86

smoothSolver:  Solving for rhoc, Initial residual = 0.00269686, Final residual = 0.00267022, No Iterations 10
smoothSolver:  Solving for rhoc, Initial residual = 5.96481e-05, Final residual = 5.08166e-05, No Iterations 5
Iteration = 87

smoothSolver:  Solving for rhoc, Initial residual = 0.00267873, Final residual = 0.00265263, No Iterations 10
smoothSolver:  Solving for rhoc, Initial residual = 5.7298e-05, Final residual = 4.87073e-05, No Iterations 5
Iteration = 88

smoothSolver:  Solving for rhoc, Initial residual = 0.00266094, Final residual = 0.00263536, No Iterations 10
smoothSolver:  Solving for rhoc, Initial residual = 5.50601e-05, Final residual = 4.66991e-05, No Iterations 5
Iteration = 89

smoothSolver:  Solving for rhoc, Initial residual = 0.00264347, Final residual = 0.00261839, No Iterations 10
smoothSolver:  Solving for rhoc, Initial residual = 5.29287e-05, Final residual = 4.47871e-05, No Iterations 5
Iteration = 90

smoothSolver:  Solving for rhoc, Initial residual = 0.00262633, Final residual = 0.00260173, No Iterations 10
smoothSolver:  Solving for rhoc, Initial residual = 5.08984e-05, Final residual = 4.29662e-05, No Iterations 5
Iteration = 91

smoothSolver:  Solving for rhoc, Initial residual = 0.00260948, Final residual = 0.00258535, No Iterations 10
smoothSolver:  Solving for rhoc, Initial residual = 4.89639e-05, Final residual = 4.1232e-05, No Iterations 5
Iteration = 92

smoothSolver:  Solving for rhoc, Initial residual = 0.00259294, Final residual = 0.00256926, No Iterations 10
smoothSolver:  Solving for rhoc, Initial residual = 4.71206e-05, Final residual = 3.958e-05, No Iterations 5
Iteration = 93

smoothSolver:  Solving for rhoc, Initial residual = 0.00257669, Final residual = 0.00255344, No Iterations 10
smoothSolver:  Solving for rhoc, Initial residual = 4.53638e-05, Final residual = 3.80062e-05, No Iterations 5
Iteration = 94

smoothSolver:  Solving for rhoc, Initial residual = 0.00256072, Final residual = 0.00253789, No Iterations 10
smoothSolver:  Solving for rhoc, Initial residual = 4.36892e-05, Final residual = 3.65066e-05, No Iterations 5
Iteration = 95

smoothSolver:  Solving for rhoc, Initial residual = 0.00254502, Final residual = 0.0025226, No Iterations 10
smoothSolver:  Solving for rhoc, Initial residual = 4.20927e-05, Final residual = 3.50776e-05, No Iterations 5
Iteration = 96

smoothSolver:  Solving for rhoc, Initial residual = 0.00252959, Final residual = 0.00250756, No Iterations 10
smoothSolver:  Solving for rhoc, Initial residual = 4.05703e-05, Final residual = 3.37157e-05, No Iterations 5
Iteration = 97

smoothSolver:  Solving for rhoc, Initial residual = 0.00251441, Final residual = 0.00249276, No Iterations 10
smoothSolver:  Solving for rhoc, Initial residual = 3.91184e-05, Final residual = 3.24175e-05, No Iterations 5
Iteration = 98

smoothSolver:  Solving for rhoc, Initial residual = 0.00249949, Final residual = 0.00247821, No Iterations 10
smoothSolver:  Solving for rhoc, Initial residual = 3.77335e-05, Final residual = 3.11799e-05, No Iterations 5
Iteration = 99

smoothSolver:  Solving for rhoc, Initial residual = 0.00248481, Final residual = 0.00246389, No Iterations 10
smoothSolver:  Solving for rhoc, Initial residual = 3.64123e-05, Final residual = 2.99998e-05, No Iterations 5
Iteration = 100

smoothSolver:  Solving for rhoc, Initial residual = 0.00247037, Final residual = 0.00244979, No Iterations 10
smoothSolver:  Solving for rhoc, Initial residual = 3.51517e-05, Final residual = 2.88746e-05, No Iterations 5
Iteration = 101

smoothSolver:  Solving for rhoc, Initial residual = 0.00245616, Final residual = 0.00243592, No Iterations 10
smoothSolver:  Solving for rhoc, Initial residual = 3.39486e-05, Final residual = 2.78014e-05, No Iterations 5
Iteration = 102

smoothSolver:  Solving for rhoc, Initial residual = 0.00244218, Final residual = 0.00242226, No Iterations 10
smoothSolver:  Solving for rhoc, Initial residual = 3.28002e-05, Final residual = 2.67778e-05, No Iterations 5
Iteration = 103

smoothSolver:  Solving for rhoc, Initial residual = 0.00242842, Final residual = 0.00240881, No Iterations 10
smoothSolver:  Solving for rhoc, Initial residual = 3.1704e-05, Final residual = 2.58013e-05, No Iterations 5
Iteration = 104

smoothSolver:  Solving for rhoc, Initial residual = 0.00241487, Final residual = 0.00239557, No Iterations 10
smoothSolver:  Solving for rhoc, Initial residual = 3.06572e-05, Final residual = 2.48696e-05, No Iterations 5
Iteration = 105

smoothSolver:  Solving for rhoc, Initial residual = 0.00240153, Final residual = 0.00238253, No Iterations 10
smoothSolver:  Solving for rhoc, Initial residual = 2.96576e-05, Final residual = 2.39806e-05, No Iterations 5
Iteration = 106

smoothSolver:  Solving for rhoc, Initial residual = 0.00238839, Final residual = 0.00236968, No Iterations 10
smoothSolver:  Solving for rhoc, Initial residual = 2.87028e-05, Final residual = 2.31321e-05, No Iterations 5
Iteration = 107

smoothSolver:  Solving for rhoc, Initial residual = 0.00237545, Final residual = 0.00235702, No Iterations 10
smoothSolver:  Solving for rhoc, Initial residual = 2.77907e-05, Final residual = 2.23222e-05, No Iterations 5
Iteration = 108

smoothSolver:  Solving for rhoc, Initial residual = 0.0023627, Final residual = 0.00234455, No Iterations 10
smoothSolver:  Solving for rhoc, Initial residual = 2.69191e-05, Final residual = 2.15491e-05, No Iterations 5
Iteration = 109

smoothSolver:  Solving for rhoc, Initial residual = 0.00235015, Final residual = 0.00233226, No Iterations 10
smoothSolver:  Solving for rhoc, Initial residual = 2.60862e-05, Final residual = 2.08109e-05, No Iterations 5
Iteration = 110

smoothSolver:  Solving for rhoc, Initial residual = 0.00233777, Final residual = 0.00232014, No Iterations 10
smoothSolver:  Solving for rhoc, Initial residual = 2.52901e-05, Final residual = 2.01061e-05, No Iterations 5
Iteration = 111

smoothSolver:  Solving for rhoc, Initial residual = 0.00232558, Final residual = 0.0023082, No Iterations 10
smoothSolver:  Solving for rhoc, Initial residual = 2.4529e-05, Final residual = 1.94328e-05, No Iterations 5
Iteration = 112

smoothSolver:  Solving for rhoc, Initial residual = 0.00231356, Final residual = 0.00229643, No Iterations 10
smoothSolver:  Solving for rhoc, Initial residual = 2.38012e-05, Final residual = 1.87898e-05, No Iterations 5
Iteration = 113

smoothSolver:  Solving for rhoc, Initial residual = 0.00230172, Final residual = 0.00228482, No Iterations 10
smoothSolver:  Solving for rhoc, Initial residual = 2.31052e-05, Final residual = 1.81754e-05, No Iterations 5
Iteration = 114

smoothSolver:  Solving for rhoc, Initial residual = 0.00229004, Final residual = 0.00227337, No Iterations 10
smoothSolver:  Solving for rhoc, Initial residual = 2.24394e-05, Final residual = 1.75884e-05, No Iterations 5
Iteration = 115

smoothSolver:  Solving for rhoc, Initial residual = 0.00227852, Final residual = 0.00226208, No Iterations 10
smoothSolver:  Solving for rhoc, Initial residual = 2.18023e-05, Final residual = 1.70275e-05, No Iterations 5
Iteration = 116

smoothSolver:  Solving for rhoc, Initial residual = 0.00226717, Final residual = 0.00225095, No Iterations 10
smoothSolver:  Solving for rhoc, Initial residual = 2.11927e-05, Final residual = 1.64913e-05, No Iterations 5
Iteration = 117

smoothSolver:  Solving for rhoc, Initial residual = 0.00225597, Final residual = 0.00223996, No Iterations 10
smoothSolver:  Solving for rhoc, Initial residual = 2.06093e-05, Final residual = 1.59787e-05, No Iterations 5
Iteration = 118

smoothSolver:  Solving for rhoc, Initial residual = 0.00224492, Final residual = 0.00222913, No Iterations 10
smoothSolver:  Solving for rhoc, Initial residual = 2.00507e-05, Final residual = 1.54887e-05, No Iterations 5
Iteration = 119

smoothSolver:  Solving for rhoc, Initial residual = 0.00223402, Final residual = 0.00221843, No Iterations 10
smoothSolver:  Solving for rhoc, Initial residual = 1.95158e-05, Final residual = 1.502e-05, No Iterations 5
Iteration = 120

smoothSolver:  Solving for rhoc, Initial residual = 0.00222327, Final residual = 0.00220788, No Iterations 10
smoothSolver:  Solving for rhoc, Initial residual = 1.90035e-05, Final residual = 1.45718e-05, No Iterations 5
Iteration = 121

smoothSolver:  Solving for rhoc, Initial residual = 0.00221266, Final residual = 0.00219747, No Iterations 10
smoothSolver:  Solving for rhoc, Initial residual = 1.85127e-05, Final residual = 1.4143e-05, No Iterations 5
Iteration = 122

smoothSolver:  Solving for rhoc, Initial residual = 0.00220219, Final residual = 0.00218719, No Iterations 10
smoothSolver:  Solving for rhoc, Initial residual = 1.80425e-05, Final residual = 1.37327e-05, No Iterations 5
Iteration = 123

smoothSolver:  Solving for rhoc, Initial residual = 0.00219186, Final residual = 0.00217704, No Iterations 10
smoothSolver:  Solving for rhoc, Initial residual = 1.75918e-05, Final residual = 1.334e-05, No Iterations 5
Iteration = 124

smoothSolver:  Solving for rhoc, Initial residual = 0.00218166, Final residual = 0.00216702, No Iterations 10
smoothSolver:  Solving for rhoc, Initial residual = 1.71597e-05, Final residual = 1.29642e-05, No Iterations 5
Iteration = 125

smoothSolver:  Solving for rhoc, Initial residual = 0.00217159, Final residual = 0.00215713, No Iterations 10
smoothSolver:  Solving for rhoc, Initial residual = 1.67455e-05, Final residual = 1.26045e-05, No Iterations 5
Iteration = 126

smoothSolver:  Solving for rhoc, Initial residual = 0.00216165, Final residual = 0.00214737, No Iterations 10
smoothSolver:  Solving for rhoc, Initial residual = 1.63482e-05, Final residual = 1.226e-05, No Iterations 5
Iteration = 127

smoothSolver:  Solving for rhoc, Initial residual = 0.00215183, Final residual = 0.00213772, No Iterations 10
smoothSolver:  Solving for rhoc, Initial residual = 1.5967e-05, Final residual = 1.193e-05, No Iterations 5
Iteration = 128

smoothSolver:  Solving for rhoc, Initial residual = 0.00214214, Final residual = 0.00212819, No Iterations 10
smoothSolver:  Solving for rhoc, Initial residual = 1.56013e-05, Final residual = 1.1614e-05, No Iterations 5
Iteration = 129

smoothSolver:  Solving for rhoc, Initial residual = 0.00213257, Final residual = 0.00211879, No Iterations 10
smoothSolver:  Solving for rhoc, Initial residual = 1.52502e-05, Final residual = 1.13112e-05, No Iterations 5
Iteration = 130

smoothSolver:  Solving for rhoc, Initial residual = 0.00212312, Final residual = 0.00210949, No Iterations 10
smoothSolver:  Solving for rhoc, Initial residual = 1.49132e-05, Final residual = 1.1021e-05, No Iterations 5
Iteration = 131

smoothSolver:  Solving for rhoc, Initial residual = 0.00211378, Final residual = 0.00210031, No Iterations 10
smoothSolver:  Solving for rhoc, Initial residual = 1.45896e-05, Final residual = 1.07429e-05, No Iterations 5
Iteration = 132

smoothSolver:  Solving for rhoc, Initial residual = 0.00210455, Final residual = 0.00209124, No Iterations 10
smoothSolver:  Solving for rhoc, Initial residual = 1.42787e-05, Final residual = 1.04762e-05, No Iterations 5
Iteration = 133

smoothSolver:  Solving for rhoc, Initial residual = 0.00209544, Final residual = 0.00208227, No Iterations 10
smoothSolver:  Solving for rhoc, Initial residual = 1.398e-05, Final residual = 1.02204e-05, No Iterations 5
Iteration = 134

smoothSolver:  Solving for rhoc, Initial residual = 0.00208644, Final residual = 0.00207341, No Iterations 10
smoothSolver:  Solving for rhoc, Initial residual = 1.3693e-05, Final residual = 9.97514e-06, No Iterations 5
Iteration = 135

smoothSolver:  Solving for rhoc, Initial residual = 0.00207754, Final residual = 0.00206466, No Iterations 10
smoothSolver:  Solving for rhoc, Initial residual = 1.3417e-05, Final residual = 9.7398e-06, No Iterations 5
Iteration = 136

smoothSolver:  Solving for rhoc, Initial residual = 0.00206874, Final residual = 0.00205601, No Iterations 10
smoothSolver:  Solving for rhoc, Initial residual = 1.31516e-05, Final residual = 9.51396e-06, No Iterations 5
Iteration = 137

smoothSolver:  Solving for rhoc, Initial residual = 0.00206005, Final residual = 0.00204745, No Iterations 10
smoothSolver:  Solving for rhoc, Initial residual = 1.28963e-05, Final residual = 9.29718e-06, No Iterations 5
Iteration = 138

smoothSolver:  Solving for rhoc, Initial residual = 0.00205146, Final residual = 0.002039, No Iterations 10
smoothSolver:  Solving for rhoc, Initial residual = 1.26507e-05, Final residual = 9.08904e-06, No Iterations 5
Iteration = 139

smoothSolver:  Solving for rhoc, Initial residual = 0.00204297, Final residual = 0.00203064, No Iterations 10
smoothSolver:  Solving for rhoc, Initial residual = 1.24143e-05, Final residual = 8.88915e-06, No Iterations 5
Iteration = 140

smoothSolver:  Solving for rhoc, Initial residual = 0.00203458, Final residual = 0.00202238, No Iterations 10
smoothSolver:  Solving for rhoc, Initial residual = 1.21867e-05, Final residual = 8.69714e-06, No Iterations 5
Iteration = 141

smoothSolver:  Solving for rhoc, Initial residual = 0.00202628, Final residual = 0.0020142, No Iterations 10
smoothSolver:  Solving for rhoc, Initial residual = 1.19675e-05, Final residual = 8.51264e-06, No Iterations 5
Iteration = 142

smoothSolver:  Solving for rhoc, Initial residual = 0.00201808, Final residual = 0.00200612, No Iterations 10
smoothSolver:  Solving for rhoc, Initial residual = 1.17563e-05, Final residual = 8.33532e-06, No Iterations 5
Iteration = 143

smoothSolver:  Solving for rhoc, Initial residual = 0.00200996, Final residual = 0.00199813, No Iterations 10
smoothSolver:  Solving for rhoc, Initial residual = 1.15528e-05, Final residual = 8.16484e-06, No Iterations 5
Iteration = 144

smoothSolver:  Solving for rhoc, Initial residual = 0.00200194, Final residual = 0.00199023, No Iterations 10
smoothSolver:  Solving for rhoc, Initial residual = 1.13567e-05, Final residual = 8.0009e-06, No Iterations 5
Iteration = 145

smoothSolver:  Solving for rhoc, Initial residual = 0.001994, Final residual = 0.00198241, No Iterations 10
smoothSolver:  Solving for rhoc, Initial residual = 1.11675e-05, Final residual = 7.8432e-06, No Iterations 5
Iteration = 146

smoothSolver:  Solving for rhoc, Initial residual = 0.00198616, Final residual = 0.00197468, No Iterations 10
smoothSolver:  Solving for rhoc, Initial residual = 1.09851e-05, Final residual = 7.69146e-06, No Iterations 5
Iteration = 147

smoothSolver:  Solving for rhoc, Initial residual = 0.00197839, Final residual = 0.00196703, No Iterations 10
smoothSolver:  Solving for rhoc, Initial residual = 1.0809e-05, Final residual = 7.54541e-06, No Iterations 5
Iteration = 148

smoothSolver:  Solving for rhoc, Initial residual = 0.00197071, Final residual = 0.00195946, No Iterations 10
smoothSolver:  Solving for rhoc, Initial residual = 1.06391e-05, Final residual = 7.4048e-06, No Iterations 5
Iteration = 149

smoothSolver:  Solving for rhoc, Initial residual = 0.00196312, Final residual = 0.00195197, No Iterations 10
smoothSolver:  Solving for rhoc, Initial residual = 1.0475e-05, Final residual = 7.26939e-06, No Iterations 5
Iteration = 150

smoothSolver:  Solving for rhoc, Initial residual = 0.0019556, Final residual = 0.00194457, No Iterations 10
smoothSolver:  Solving for rhoc, Initial residual = 1.03165e-05, Final residual = 7.13894e-06, No Iterations 5
Iteration = 151

smoothSolver:  Solving for rhoc, Initial residual = 0.00194816, Final residual = 0.00193724, No Iterations 10
smoothSolver:  Solving for rhoc, Initial residual = 1.01633e-05, Final residual = 7.01323e-06, No Iterations 5
Iteration = 152

smoothSolver:  Solving for rhoc, Initial residual = 0.00194081, Final residual = 0.00192998, No Iterations 10
smoothSolver:  Solving for rhoc, Initial residual = 1.00153e-05, Final residual = 6.89205e-06, No Iterations 5
Iteration = 153

smoothSolver:  Solving for rhoc, Initial residual = 0.00193352, Final residual = 0.0019228, No Iterations 10
smoothSolver:  Solving for rhoc, Initial residual = 9.87221e-06, Final residual = 6.7752e-06, No Iterations 5
Iteration = 154

smoothSolver:  Solving for rhoc, Initial residual = 0.00192632, Final residual = 0.0019157, No Iterations 10
smoothSolver:  Solving for rhoc, Initial residual = 9.73378e-06, Final residual = 6.66249e-06, No Iterations 5
Iteration = 155

smoothSolver:  Solving for rhoc, Initial residual = 0.00191919, Final residual = 0.00190866, No Iterations 10
smoothSolver:  Solving for rhoc, Initial residual = 9.59983e-06, Final residual = 6.55374e-06, No Iterations 5
Iteration = 156

smoothSolver:  Solving for rhoc, Initial residual = 0.00191213, Final residual = 0.0019017, No Iterations 10
smoothSolver:  Solving for rhoc, Initial residual = 9.47018e-06, Final residual = 6.44878e-06, No Iterations 5
Iteration = 157

smoothSolver:  Solving for rhoc, Initial residual = 0.00190514, Final residual = 0.00189481, No Iterations 10
smoothSolver:  Solving for rhoc, Initial residual = 9.34465e-06, Final residual = 6.34743e-06, No Iterations 5
Iteration = 158

smoothSolver:  Solving for rhoc, Initial residual = 0.00189822, Final residual = 0.00188799, No Iterations 10
smoothSolver:  Solving for rhoc, Initial residual = 9.22305e-06, Final residual = 6.24954e-06, No Iterations 5
Iteration = 159

smoothSolver:  Solving for rhoc, Initial residual = 0.00189138, Final residual = 0.00188123, No Iterations 10
smoothSolver:  Solving for rhoc, Initial residual = 9.10522e-06, Final residual = 6.15497e-06, No Iterations 5
Iteration = 160

smoothSolver:  Solving for rhoc, Initial residual = 0.0018846, Final residual = 0.00187454, No Iterations 10
smoothSolver:  Solving for rhoc, Initial residual = 8.99101e-06, Final residual = 6.06356e-06, No Iterations 5
Iteration = 161

smoothSolver:  Solving for rhoc, Initial residual = 0.00187788, Final residual = 0.00186792, No Iterations 10
smoothSolver:  Solving for rhoc, Initial residual = 8.88026e-06, Final residual = 5.97518e-06, No Iterations 5
Iteration = 162

smoothSolver:  Solving for rhoc, Initial residual = 0.00187124, Final residual = 0.00186136, No Iterations 10
smoothSolver:  Solving for rhoc, Initial residual = 8.77283e-06, Final residual = 5.8897e-06, No Iterations 5
Iteration = 163

smoothSolver:  Solving for rhoc, Initial residual = 0.00186466, Final residual = 0.00185487, No Iterations 10
smoothSolver:  Solving for rhoc, Initial residual = 8.66858e-06, Final residual = 5.807e-06, No Iterations 5
Iteration = 164

smoothSolver:  Solving for rhoc, Initial residual = 0.00185814, Final residual = 0.00184844, No Iterations 10
smoothSolver:  Solving for rhoc, Initial residual = 8.56738e-06, Final residual = 5.72696e-06, No Iterations 5
Iteration = 165

smoothSolver:  Solving for rhoc, Initial residual = 0.00185169, Final residual = 0.00184207, No Iterations 10
smoothSolver:  Solving for rhoc, Initial residual = 8.4691e-06, Final residual = 5.64946e-06, No Iterations 5
Iteration = 166

smoothSolver:  Solving for rhoc, Initial residual = 0.0018453, Final residual = 0.00183576, No Iterations 10
smoothSolver:  Solving for rhoc, Initial residual = 8.37363e-06, Final residual = 5.5744e-06, No Iterations 5
Iteration = 167

smoothSolver:  Solving for rhoc, Initial residual = 0.00183896, Final residual = 0.00182951, No Iterations 10
smoothSolver:  Solving for rhoc, Initial residual = 8.28085e-06, Final residual = 5.50168e-06, No Iterations 5
Iteration = 168

smoothSolver:  Solving for rhoc, Initial residual = 0.00183269, Final residual = 0.00182332, No Iterations 10
smoothSolver:  Solving for rhoc, Initial residual = 8.19065e-06, Final residual = 5.43119e-06, No Iterations 5
Iteration = 169

smoothSolver:  Solving for rhoc, Initial residual = 0.00182648, Final residual = 0.00181718, No Iterations 10
smoothSolver:  Solving for rhoc, Initial residual = 8.10292e-06, Final residual = 5.36284e-06, No Iterations 5
Iteration = 170

smoothSolver:  Solving for rhoc, Initial residual = 0.00182033, Final residual = 0.00181111, No Iterations 10
smoothSolver:  Solving for rhoc, Initial residual = 8.01758e-06, Final residual = 5.29655e-06, No Iterations 5
Iteration = 171

smoothSolver:  Solving for rhoc, Initial residual = 0.00181423, Final residual = 0.00180509, No Iterations 10
smoothSolver:  Solving for rhoc, Initial residual = 7.93452e-06, Final residual = 5.23223e-06, No Iterations 5
Iteration = 172

smoothSolver:  Solving for rhoc, Initial residual = 0.00180819, Final residual = 0.00179912, No Iterations 10
smoothSolver:  Solving for rhoc, Initial residual = 7.85365e-06, Final residual = 5.16979e-06, No Iterations 5
Iteration = 173

smoothSolver:  Solving for rhoc, Initial residual = 0.00180221, Final residual = 0.00179321, No Iterations 10
smoothSolver:  Solving for rhoc, Initial residual = 7.77489e-06, Final residual = 5.10916e-06, No Iterations 5
Iteration = 174

smoothSolver:  Solving for rhoc, Initial residual = 0.00179628, Final residual = 0.00178736, No Iterations 10
smoothSolver:  Solving for rhoc, Initial residual = 7.69815e-06, Final residual = 5.05027e-06, No Iterations 5
Iteration = 175

smoothSolver:  Solving for rhoc, Initial residual = 0.00179041, Final residual = 0.00178155, No Iterations 10
smoothSolver:  Solving for rhoc, Initial residual = 7.62336e-06, Final residual = 4.99305e-06, No Iterations 5
Iteration = 176

smoothSolver:  Solving for rhoc, Initial residual = 0.00178458, Final residual = 0.0017758, No Iterations 10
smoothSolver:  Solving for rhoc, Initial residual = 7.55044e-06, Final residual = 4.93742e-06, No Iterations 5
Iteration = 177

smoothSolver:  Solving for rhoc, Initial residual = 0.00177881, Final residual = 0.0017701, No Iterations 10
smoothSolver:  Solving for rhoc, Initial residual = 7.47931e-06, Final residual = 4.88333e-06, No Iterations 5
Iteration = 178

smoothSolver:  Solving for rhoc, Initial residual = 0.0017731, Final residual = 0.00176446, No Iterations 10
smoothSolver:  Solving for rhoc, Initial residual = 7.40992e-06, Final residual = 4.8307e-06, No Iterations 5
Iteration = 179

smoothSolver:  Solving for rhoc, Initial residual = 0.00176743, Final residual = 0.00175886, No Iterations 10
smoothSolver:  Solving for rhoc, Initial residual = 7.34219e-06, Final residual = 4.7795e-06, No Iterations 5
Iteration = 180

smoothSolver:  Solving for rhoc, Initial residual = 0.00176181, Final residual = 0.00175331, No Iterations 10
smoothSolver:  Solving for rhoc, Initial residual = 7.27607e-06, Final residual = 4.72965e-06, No Iterations 5
Iteration = 181

smoothSolver:  Solving for rhoc, Initial residual = 0.00175624, Final residual = 0.00174781, No Iterations 10
smoothSolver:  Solving for rhoc, Initial residual = 7.21148e-06, Final residual = 4.6811e-06, No Iterations 5
Iteration = 182

smoothSolver:  Solving for rhoc, Initial residual = 0.00175073, Final residual = 0.00174235, No Iterations 10
smoothSolver:  Solving for rhoc, Initial residual = 7.14838e-06, Final residual = 4.63381e-06, No Iterations 5
Iteration = 183

smoothSolver:  Solving for rhoc, Initial residual = 0.00174526, Final residual = 0.00173695, No Iterations 10
smoothSolver:  Solving for rhoc, Initial residual = 7.08671e-06, Final residual = 4.58772e-06, No Iterations 5
Iteration = 184

smoothSolver:  Solving for rhoc, Initial residual = 0.00173983, Final residual = 0.00173159, No Iterations 10
smoothSolver:  Solving for rhoc, Initial residual = 7.02641e-06, Final residual = 4.54279e-06, No Iterations 5
Iteration = 185

smoothSolver:  Solving for rhoc, Initial residual = 0.00173446, Final residual = 0.00172627, No Iterations 10
smoothSolver:  Solving for rhoc, Initial residual = 6.96745e-06, Final residual = 4.49897e-06, No Iterations 5
Iteration = 186

smoothSolver:  Solving for rhoc, Initial residual = 0.00172913, Final residual = 0.001721, No Iterations 10
smoothSolver:  Solving for rhoc, Initial residual = 6.90976e-06, Final residual = 4.45622e-06, No Iterations 5
Iteration = 187

smoothSolver:  Solving for rhoc, Initial residual = 0.00172384, Final residual = 0.00171578, No Iterations 10
smoothSolver:  Solving for rhoc, Initial residual = 6.8533e-06, Final residual = 4.41451e-06, No Iterations 5
Iteration = 188

smoothSolver:  Solving for rhoc, Initial residual = 0.0017186, Final residual = 0.0017106, No Iterations 10
smoothSolver:  Solving for rhoc, Initial residual = 6.79804e-06, Final residual = 4.37378e-06, No Iterations 5
Iteration = 189

smoothSolver:  Solving for rhoc, Initial residual = 0.0017134, Final residual = 0.00170546, No Iterations 10
smoothSolver:  Solving for rhoc, Initial residual = 6.74392e-06, Final residual = 4.33401e-06, No Iterations 5
Iteration = 190

smoothSolver:  Solving for rhoc, Initial residual = 0.00170825, Final residual = 0.00170037, No Iterations 10
smoothSolver:  Solving for rhoc, Initial residual = 6.69091e-06, Final residual = 4.29516e-06, No Iterations 5
Iteration = 191

smoothSolver:  Solving for rhoc, Initial residual = 0.00170314, Final residual = 0.00169532, No Iterations 10
smoothSolver:  Solving for rhoc, Initial residual = 6.63897e-06, Final residual = 4.25719e-06, No Iterations 5
Iteration = 192

smoothSolver:  Solving for rhoc, Initial residual = 0.00169807, Final residual = 0.00169031, No Iterations 10
smoothSolver:  Solving for rhoc, Initial residual = 6.58806e-06, Final residual = 4.22008e-06, No Iterations 5
Iteration = 193

smoothSolver:  Solving for rhoc, Initial residual = 0.00169305, Final residual = 0.00168534, No Iterations 10
smoothSolver:  Solving for rhoc, Initial residual = 6.53815e-06, Final residual = 4.18378e-06, No Iterations 5
Iteration = 194

smoothSolver:  Solving for rhoc, Initial residual = 0.00168806, Final residual = 0.00168041, No Iterations 10
smoothSolver:  Solving for rhoc, Initial residual = 6.4892e-06, Final residual = 4.14828e-06, No Iterations 5
Iteration = 195

smoothSolver:  Solving for rhoc, Initial residual = 0.00168312, Final residual = 0.00167552, No Iterations 10
smoothSolver:  Solving for rhoc, Initial residual = 6.44119e-06, Final residual = 4.11354e-06, No Iterations 5
Iteration = 196

smoothSolver:  Solving for rhoc, Initial residual = 0.00167822, Final residual = 0.00167067, No Iterations 10
smoothSolver:  Solving for rhoc, Initial residual = 6.39407e-06, Final residual = 4.07954e-06, No Iterations 5
Iteration = 197

smoothSolver:  Solving for rhoc, Initial residual = 0.00167335, Final residual = 0.00166586, No Iterations 10
smoothSolver:  Solving for rhoc, Initial residual = 6.34783e-06, Final residual = 4.04625e-06, No Iterations 5
Iteration = 198

smoothSolver:  Solving for rhoc, Initial residual = 0.00166853, Final residual = 0.00166109, No Iterations 10
smoothSolver:  Solving for rhoc, Initial residual = 6.30242e-06, Final residual = 4.01364e-06, No Iterations 5
Iteration = 199

smoothSolver:  Solving for rhoc, Initial residual = 0.00166374, Final residual = 0.00165635, No Iterations 10
smoothSolver:  Solving for rhoc, Initial residual = 6.25783e-06, Final residual = 3.9817e-06, No Iterations 5
Iteration = 200

smoothSolver:  Solving for rhoc, Initial residual = 0.00165899, Final residual = 0.00165166, No Iterations 10
smoothSolver:  Solving for rhoc, Initial residual = 6.21404e-06, Final residual = 3.95039e-06, No Iterations 5
Iteration = 201

smoothSolver:  Solving for rhoc, Initial residual = 0.00165428, Final residual = 0.001647, No Iterations 10
smoothSolver:  Solving for rhoc, Initial residual = 6.171e-06, Final residual = 3.91971e-06, No Iterations 5
Iteration = 202

smoothSolver:  Solving for rhoc, Initial residual = 0.00164961, Final residual = 0.00164237, No Iterations 10
smoothSolver:  Solving for rhoc, Initial residual = 6.12871e-06, Final residual = 3.88961e-06, No Iterations 5
Iteration = 203

smoothSolver:  Solving for rhoc, Initial residual = 0.00164497, Final residual = 0.00163779, No Iterations 10
smoothSolver:  Solving for rhoc, Initial residual = 6.08713e-06, Final residual = 3.8601e-06, No Iterations 5
Iteration = 204

smoothSolver:  Solving for rhoc, Initial residual = 0.00164037, Final residual = 0.00163323, No Iterations 10
smoothSolver:  Solving for rhoc, Initial residual = 6.04625e-06, Final residual = 3.83114e-06, No Iterations 5
Iteration = 205

smoothSolver:  Solving for rhoc, Initial residual = 0.00163581, Final residual = 0.00162872, No Iterations 10
smoothSolver:  Solving for rhoc, Initial residual = 6.00604e-06, Final residual = 3.80272e-06, No Iterations 5
Iteration = 206

smoothSolver:  Solving for rhoc, Initial residual = 0.00163128, Final residual = 0.00162424, No Iterations 10
smoothSolver:  Solving for rhoc, Initial residual = 5.96648e-06, Final residual = 3.77482e-06, No Iterations 5
Iteration = 207

smoothSolver:  Solving for rhoc, Initial residual = 0.00162678, Final residual = 0.00161979, No Iterations 10
smoothSolver:  Solving for rhoc, Initial residual = 5.92756e-06, Final residual = 3.74742e-06, No Iterations 5
Iteration = 208

smoothSolver:  Solving for rhoc, Initial residual = 0.00162232, Final residual = 0.00161537, No Iterations 10
smoothSolver:  Solving for rhoc, Initial residual = 5.88926e-06, Final residual = 3.72051e-06, No Iterations 5
Iteration = 209

smoothSolver:  Solving for rhoc, Initial residual = 0.00161789, Final residual = 0.00161099, No Iterations 10
smoothSolver:  Solving for rhoc, Initial residual = 5.85155e-06, Final residual = 3.69408e-06, No Iterations 5
Iteration = 210

smoothSolver:  Solving for rhoc, Initial residual = 0.0016135, Final residual = 0.00160665, No Iterations 10
smoothSolver:  Solving for rhoc, Initial residual = 5.81442e-06, Final residual = 3.6681e-06, No Iterations 5
Iteration = 211

smoothSolver:  Solving for rhoc, Initial residual = 0.00160914, Final residual = 0.00160233, No Iterations 10
smoothSolver:  Solving for rhoc, Initial residual = 5.77786e-06, Final residual = 3.64257e-06, No Iterations 5
Iteration = 212

smoothSolver:  Solving for rhoc, Initial residual = 0.00160481, Final residual = 0.00159805, No Iterations 10
smoothSolver:  Solving for rhoc, Initial residual = 5.74184e-06, Final residual = 3.61747e-06, No Iterations 5
Iteration = 213

smoothSolver:  Solving for rhoc, Initial residual = 0.00160052, Final residual = 0.0015938, No Iterations 10
smoothSolver:  Solving for rhoc, Initial residual = 5.70636e-06, Final residual = 3.59278e-06, No Iterations 5
Iteration = 214

smoothSolver:  Solving for rhoc, Initial residual = 0.00159626, Final residual = 0.00158958, No Iterations 10
smoothSolver:  Solving for rhoc, Initial residual = 5.6714e-06, Final residual = 3.5685e-06, No Iterations 5
Iteration = 215

smoothSolver:  Solving for rhoc, Initial residual = 0.00159202, Final residual = 0.00158539, No Iterations 10
smoothSolver:  Solving for rhoc, Initial residual = 5.63693e-06, Final residual = 3.54461e-06, No Iterations 5
Iteration = 216

smoothSolver:  Solving for rhoc, Initial residual = 0.00158782, Final residual = 0.00158123, No Iterations 10
smoothSolver:  Solving for rhoc, Initial residual = 5.60296e-06, Final residual = 3.5211e-06, No Iterations 5
Iteration = 217

smoothSolver:  Solving for rhoc, Initial residual = 0.00158366, Final residual = 0.00157711, No Iterations 10
smoothSolver:  Solving for rhoc, Initial residual = 5.56947e-06, Final residual = 3.49796e-06, No Iterations 5
Iteration = 218

smoothSolver:  Solving for rhoc, Initial residual = 0.00157952, Final residual = 0.00157301, No Iterations 10
smoothSolver:  Solving for rhoc, Initial residual = 5.53644e-06, Final residual = 3.47518e-06, No Iterations 5
Iteration = 219

smoothSolver:  Solving for rhoc, Initial residual = 0.00157541, Final residual = 0.00156894, No Iterations 10
smoothSolver:  Solving for rhoc, Initial residual = 5.50386e-06, Final residual = 3.45275e-06, No Iterations 5
Iteration = 220

smoothSolver:  Solving for rhoc, Initial residual = 0.00157133, Final residual = 0.0015649, No Iterations 10
smoothSolver:  Solving for rhoc, Initial residual = 5.47172e-06, Final residual = 3.43065e-06, No Iterations 5
Iteration = 221

smoothSolver:  Solving for rhoc, Initial residual = 0.00156728, Final residual = 0.00156089, No Iterations 10
smoothSolver:  Solving for rhoc, Initial residual = 5.44001e-06, Final residual = 3.40889e-06, No Iterations 5
Iteration = 222

smoothSolver:  Solving for rhoc, Initial residual = 0.00156326, Final residual = 0.00155691, No Iterations 10
smoothSolver:  Solving for rhoc, Initial residual = 5.40873e-06, Final residual = 3.38744e-06, No Iterations 5
Iteration = 223

smoothSolver:  Solving for rhoc, Initial residual = 0.00155927, Final residual = 0.00155296, No Iterations 10
smoothSolver:  Solving for rhoc, Initial residual = 5.37784e-06, Final residual = 3.36631e-06, No Iterations 5
Iteration = 224

smoothSolver:  Solving for rhoc, Initial residual = 0.0015553, Final residual = 0.00154904, No Iterations 10
smoothSolver:  Solving for rhoc, Initial residual = 5.34736e-06, Final residual = 3.34548e-06, No Iterations 5
Iteration = 225

smoothSolver:  Solving for rhoc, Initial residual = 0.00155137, Final residual = 0.00154514, No Iterations 10
smoothSolver:  Solving for rhoc, Initial residual = 5.31727e-06, Final residual = 3.32494e-06, No Iterations 5
Iteration = 226

smoothSolver:  Solving for rhoc, Initial residual = 0.00154746, Final residual = 0.00154127, No Iterations 10
smoothSolver:  Solving for rhoc, Initial residual = 5.28755e-06, Final residual = 3.3047e-06, No Iterations 5
Iteration = 227

smoothSolver:  Solving for rhoc, Initial residual = 0.00154358, Final residual = 0.00153743, No Iterations 10
smoothSolver:  Solving for rhoc, Initial residual = 5.2582e-06, Final residual = 3.28473e-06, No Iterations 5
Iteration = 228

smoothSolver:  Solving for rhoc, Initial residual = 0.00153972, Final residual = 0.00153361, No Iterations 10
smoothSolver:  Solving for rhoc, Initial residual = 5.22922e-06, Final residual = 3.26503e-06, No Iterations 5
Iteration = 229

smoothSolver:  Solving for rhoc, Initial residual = 0.0015359, Final residual = 0.00152982, No Iterations 10
smoothSolver:  Solving for rhoc, Initial residual = 5.20059e-06, Final residual = 3.2456e-06, No Iterations 5
Iteration = 230

smoothSolver:  Solving for rhoc, Initial residual = 0.0015321, Final residual = 0.00152606, No Iterations 10
smoothSolver:  Solving for rhoc, Initial residual = 5.1723e-06, Final residual = 3.22643e-06, No Iterations 5
Iteration = 231

smoothSolver:  Solving for rhoc, Initial residual = 0.00152832, Final residual = 0.00152232, No Iterations 10
smoothSolver:  Solving for rhoc, Initial residual = 5.14435e-06, Final residual = 3.20751e-06, No Iterations 5
Iteration = 232

smoothSolver:  Solving for rhoc, Initial residual = 0.00152457, Final residual = 0.00151861, No Iterations 10
smoothSolver:  Solving for rhoc, Initial residual = 5.11673e-06, Final residual = 3.18883e-06, No Iterations 5
Iteration = 233

smoothSolver:  Solving for rhoc, Initial residual = 0.00152085, Final residual = 0.00151492, No Iterations 10
smoothSolver:  Solving for rhoc, Initial residual = 5.08944e-06, Final residual = 3.1704e-06, No Iterations 5
Iteration = 234

smoothSolver:  Solving for rhoc, Initial residual = 0.00151715, Final residual = 0.00151126, No Iterations 10
smoothSolver:  Solving for rhoc, Initial residual = 5.06245e-06, Final residual = 3.1522e-06, No Iterations 5
Iteration = 235

smoothSolver:  Solving for rhoc, Initial residual = 0.00151348, Final residual = 0.00150762, No Iterations 10
smoothSolver:  Solving for rhoc, Initial residual = 5.03578e-06, Final residual = 3.13423e-06, No Iterations 5
Iteration = 236

smoothSolver:  Solving for rhoc, Initial residual = 0.00150983, Final residual = 0.001504, No Iterations 10
smoothSolver:  Solving for rhoc, Initial residual = 5.00941e-06, Final residual = 3.11648e-06, No Iterations 5
Iteration = 237

smoothSolver:  Solving for rhoc, Initial residual = 0.00150621, Final residual = 0.00150042, No Iterations 10
smoothSolver:  Solving for rhoc, Initial residual = 4.98333e-06, Final residual = 3.09895e-06, No Iterations 5
Iteration = 238

smoothSolver:  Solving for rhoc, Initial residual = 0.00150261, Final residual = 0.00149685, No Iterations 10
smoothSolver:  Solving for rhoc, Initial residual = 4.95755e-06, Final residual = 3.08163e-06, No Iterations 5
Iteration = 239

smoothSolver:  Solving for rhoc, Initial residual = 0.00149904, Final residual = 0.00149331, No Iterations 10
smoothSolver:  Solving for rhoc, Initial residual = 4.93204e-06, Final residual = 3.06453e-06, No Iterations 5
Iteration = 240

smoothSolver:  Solving for rhoc, Initial residual = 0.00149548, Final residual = 0.00148979, No Iterations 10
smoothSolver:  Solving for rhoc, Initial residual = 4.90682e-06, Final residual = 3.04762e-06, No Iterations 5
Iteration = 241

smoothSolver:  Solving for rhoc, Initial residual = 0.00149196, Final residual = 0.00148629, No Iterations 10
smoothSolver:  Solving for rhoc, Initial residual = 4.88186e-06, Final residual = 3.03092e-06, No Iterations 5
Iteration = 242

smoothSolver:  Solving for rhoc, Initial residual = 0.00148845, Final residual = 0.00148282, No Iterations 10
smoothSolver:  Solving for rhoc, Initial residual = 4.85717e-06, Final residual = 3.0144e-06, No Iterations 5
Iteration = 243

smoothSolver:  Solving for rhoc, Initial residual = 0.00148497, Final residual = 0.00147937, No Iterations 10
smoothSolver:  Solving for rhoc, Initial residual = 4.83275e-06, Final residual = 2.99808e-06, No Iterations 5
Iteration = 244

smoothSolver:  Solving for rhoc, Initial residual = 0.00148151, Final residual = 0.00147594, No Iterations 10
smoothSolver:  Solving for rhoc, Initial residual = 4.80858e-06, Final residual = 2.98195e-06, No Iterations 5
Iteration = 245

smoothSolver:  Solving for rhoc, Initial residual = 0.00147807, Final residual = 0.00147254, No Iterations 10
smoothSolver:  Solving for rhoc, Initial residual = 4.78466e-06, Final residual = 2.966e-06, No Iterations 5
Iteration = 246

smoothSolver:  Solving for rhoc, Initial residual = 0.00147466, Final residual = 0.00146916, No Iterations 10
smoothSolver:  Solving for rhoc, Initial residual = 4.76099e-06, Final residual = 2.95022e-06, No Iterations 5
Iteration = 247

smoothSolver:  Solving for rhoc, Initial residual = 0.00147127, Final residual = 0.00146579, No Iterations 10
smoothSolver:  Solving for rhoc, Initial residual = 4.73756e-06, Final residual = 2.93463e-06, No Iterations 5
Iteration = 248

smoothSolver:  Solving for rhoc, Initial residual = 0.0014679, Final residual = 0.00146245, No Iterations 10
smoothSolver:  Solving for rhoc, Initial residual = 4.71437e-06, Final residual = 2.9192e-06, No Iterations 5
Iteration = 249

smoothSolver:  Solving for rhoc, Initial residual = 0.00146455, Final residual = 0.00145913, No Iterations 10
smoothSolver:  Solving for rhoc, Initial residual = 4.69141e-06, Final residual = 2.90394e-06, No Iterations 5
Iteration = 250

smoothSolver:  Solving for rhoc, Initial residual = 0.00146122, Final residual = 0.00145584, No Iterations 10
smoothSolver:  Solving for rhoc, Initial residual = 4.66868e-06, Final residual = 2.88885e-06, No Iterations 5
Iteration = 251

smoothSolver:  Solving for rhoc, Initial residual = 0.00145791, Final residual = 0.00145256, No Iterations 10
smoothSolver:  Solving for rhoc, Initial residual = 4.64618e-06, Final residual = 2.87392e-06, No Iterations 5
Iteration = 252

smoothSolver:  Solving for rhoc, Initial residual = 0.00145463, Final residual = 0.0014493, No Iterations 10
smoothSolver:  Solving for rhoc, Initial residual = 4.62389e-06, Final residual = 2.85914e-06, No Iterations 5
Iteration = 253

smoothSolver:  Solving for rhoc, Initial residual = 0.00145136, Final residual = 0.00144607, No Iterations 10
smoothSolver:  Solving for rhoc, Initial residual = 4.60183e-06, Final residual = 2.84452e-06, No Iterations 5
Iteration = 254

smoothSolver:  Solving for rhoc, Initial residual = 0.00144811, Final residual = 0.00144285, No Iterations 10
smoothSolver:  Solving for rhoc, Initial residual = 4.57997e-06, Final residual = 2.83006e-06, No Iterations 5
Iteration = 255

smoothSolver:  Solving for rhoc, Initial residual = 0.00144489, Final residual = 0.00143965, No Iterations 10
smoothSolver:  Solving for rhoc, Initial residual = 4.55833e-06, Final residual = 2.81574e-06, No Iterations 5
Iteration = 256

smoothSolver:  Solving for rhoc, Initial residual = 0.00144169, Final residual = 0.00143648, No Iterations 10
smoothSolver:  Solving for rhoc, Initial residual = 4.53689e-06, Final residual = 2.80157e-06, No Iterations 5
Iteration = 257

smoothSolver:  Solving for rhoc, Initial residual = 0.0014385, Final residual = 0.00143332, No Iterations 10
smoothSolver:  Solving for rhoc, Initial residual = 4.51566e-06, Final residual = 2.78754e-06, No Iterations 5
Iteration = 258

smoothSolver:  Solving for rhoc, Initial residual = 0.00143534, Final residual = 0.00143018, No Iterations 10
smoothSolver:  Solving for rhoc, Initial residual = 4.49462e-06, Final residual = 2.77366e-06, No Iterations 5
Iteration = 259

smoothSolver:  Solving for rhoc, Initial residual = 0.00143219, Final residual = 0.00142706, No Iterations 10
smoothSolver:  Solving for rhoc, Initial residual = 4.47378e-06, Final residual = 2.75991e-06, No Iterations 5
Iteration = 260

smoothSolver:  Solving for rhoc, Initial residual = 0.00142906, Final residual = 0.00142396, No Iterations 10
smoothSolver:  Solving for rhoc, Initial residual = 4.45313e-06, Final residual = 2.7463e-06, No Iterations 5
Iteration = 261

smoothSolver:  Solving for rhoc, Initial residual = 0.00142596, Final residual = 0.00142088, No Iterations 10
smoothSolver:  Solving for rhoc, Initial residual = 4.43268e-06, Final residual = 2.73282e-06, No Iterations 5
Iteration = 262

smoothSolver:  Solving for rhoc, Initial residual = 0.00142287, Final residual = 0.00141782, No Iterations 10
smoothSolver:  Solving for rhoc, Initial residual = 4.41241e-06, Final residual = 2.71948e-06, No Iterations 5
Iteration = 263

smoothSolver:  Solving for rhoc, Initial residual = 0.0014198, Final residual = 0.00141478, No Iterations 10
smoothSolver:  Solving for rhoc, Initial residual = 4.39232e-06, Final residual = 2.70626e-06, No Iterations 5
Iteration = 264

smoothSolver:  Solving for rhoc, Initial residual = 0.00141675, Final residual = 0.00141175, No Iterations 10
smoothSolver:  Solving for rhoc, Initial residual = 4.37241e-06, Final residual = 2.69317e-06, No Iterations 5
Iteration = 265

smoothSolver:  Solving for rhoc, Initial residual = 0.00141371, Final residual = 0.00140875, No Iterations 10
smoothSolver:  Solving for rhoc, Initial residual = 4.35268e-06, Final residual = 2.68021e-06, No Iterations 5
Iteration = 266

smoothSolver:  Solving for rhoc, Initial residual = 0.0014107, Final residual = 0.00140576, No Iterations 10
smoothSolver:  Solving for rhoc, Initial residual = 4.33313e-06, Final residual = 2.66737e-06, No Iterations 5
Iteration = 267

smoothSolver:  Solving for rhoc, Initial residual = 0.0014077, Final residual = 0.00140279, No Iterations 10
smoothSolver:  Solving for rhoc, Initial residual = 4.31375e-06, Final residual = 2.65465e-06, No Iterations 5
Iteration = 268

smoothSolver:  Solving for rhoc, Initial residual = 0.00140472, Final residual = 0.00139983, No Iterations 10
smoothSolver:  Solving for rhoc, Initial residual = 4.29454e-06, Final residual = 2.64205e-06, No Iterations 5
Iteration = 269

smoothSolver:  Solving for rhoc, Initial residual = 0.00140176, Final residual = 0.00139689, No Iterations 10
smoothSolver:  Solving for rhoc, Initial residual = 4.2755e-06, Final residual = 2.62957e-06, No Iterations 5
Iteration = 270

smoothSolver:  Solving for rhoc, Initial residual = 0.00139881, Final residual = 0.00139397, No Iterations 10
smoothSolver:  Solving for rhoc, Initial residual = 4.25662e-06, Final residual = 2.6172e-06, No Iterations 5
Iteration = 271

smoothSolver:  Solving for rhoc, Initial residual = 0.00139589, Final residual = 0.00139107, No Iterations 10
smoothSolver:  Solving for rhoc, Initial residual = 4.2379e-06, Final residual = 2.60494e-06, No Iterations 5
Iteration = 272

smoothSolver:  Solving for rhoc, Initial residual = 0.00139298, Final residual = 0.00138819, No Iterations 10
smoothSolver:  Solving for rhoc, Initial residual = 4.21935e-06, Final residual = 2.5928e-06, No Iterations 5
Iteration = 273

smoothSolver:  Solving for rhoc, Initial residual = 0.00139008, Final residual = 0.00138532, No Iterations 10
smoothSolver:  Solving for rhoc, Initial residual = 4.20095e-06, Final residual = 2.58077e-06, No Iterations 5
Iteration = 274

smoothSolver:  Solving for rhoc, Initial residual = 0.00138721, Final residual = 0.00138247, No Iterations 10
smoothSolver:  Solving for rhoc, Initial residual = 4.18271e-06, Final residual = 2.56884e-06, No Iterations 5
Iteration = 275

smoothSolver:  Solving for rhoc, Initial residual = 0.00138435, Final residual = 0.00137963, No Iterations 10
smoothSolver:  Solving for rhoc, Initial residual = 4.16462e-06, Final residual = 2.55702e-06, No Iterations 5
Iteration = 276

smoothSolver:  Solving for rhoc, Initial residual = 0.00138151, Final residual = 0.00137681, No Iterations 10
smoothSolver:  Solving for rhoc, Initial residual = 4.14669e-06, Final residual = 2.54531e-06, No Iterations 5
Iteration = 277

smoothSolver:  Solving for rhoc, Initial residual = 0.00137868, Final residual = 0.00137401, No Iterations 10
smoothSolver:  Solving for rhoc, Initial residual = 4.1289e-06, Final residual = 2.5337e-06, No Iterations 5
Iteration = 278

smoothSolver:  Solving for rhoc, Initial residual = 0.00137587, Final residual = 0.00137122, No Iterations 10
smoothSolver:  Solving for rhoc, Initial residual = 4.11126e-06, Final residual = 2.52219e-06, No Iterations 5
Iteration = 279

smoothSolver:  Solving for rhoc, Initial residual = 0.00137307, Final residual = 0.00136845, No Iterations 10
smoothSolver:  Solving for rhoc, Initial residual = 4.09376e-06, Final residual = 2.51078e-06, No Iterations 5
Iteration = 280

smoothSolver:  Solving for rhoc, Initial residual = 0.00137029, Final residual = 0.00136569, No Iterations 10
[...]
ExecutionTime = 1935.39 s  ClockTime = 1940 s

Time = 0.0001555

Courant Number mean: 2.65711e-08 max: 0.00109585
Solve momentum predictor
smoothSolver:  Solving for Ux, Initial residual = 0.000514334, Final residual = 5.46404e-10, No Iterations 4
smoothSolver:  Solving for Uy, Initial residual = 0.0234632, Final residual = 9.27561e-10, No Iterations 5
FDICPCG:  Solving for p, Initial residual = 0.0152657, Final residual = 9.77715e-09, No Iterations 1098
time step continuity errors : sum local = 9.57172e-19, global = -6.57991e-21, cumulative = -4.7959e-20
ExecutionTime = 1937.91 s  ClockTime = 1942 s

Time = 0.000156

Courant Number mean: 2.67453e-08 max: 0.00110337
Solve momentum predictor
smoothSolver:  Solving for Ux, Initial residual = 0.000515554, Final residual = 5.47766e-10, No Iterations 4
smoothSolver:  Solving for Uy, Initial residual = 0.0235194, Final residual = 9.29719e-10, No Iterations 5
FDICPCG:  Solving for p, Initial residual = 0.0149699, Final residual = 9.83712e-09, No Iterations 1089
time step continuity errors : sum local = 9.7139e-19, global = -1.01995e-20, cumulative = -5.81585e-20
ExecutionTime = 1940.34 s  ClockTime = 1945 s

Time = 0.0001565

Courant Number mean: 2.69209e-08 max: 0.00111098
Solve momentum predictor
smoothSolver:  Solving for Ux, Initial residual = 0.000516578, Final residual = 5.48876e-10, No Iterations 4
smoothSolver:  Solving for Uy, Initial residual = 0.0235597, Final residual = 9.31465e-10, No Iterations 5
FDICPCG:  Solving for p, Initial residual = 0.014792, Final residual = 9.67121e-09, No Iterations 1095
time step continuity errors : sum local = 9.63027e-19, global = -7.64531e-21, cumulative = -6.58038e-20
ExecutionTime = 1942.81 s  ClockTime = 1947 s

Time = 0.000157

Courant Number mean: 2.70981e-08 max: 0.00111989
Solve momentum predictor
smoothSolver:  Solving for Ux, Initial residual = 0.000517337, Final residual = 5.49746e-10, No Iterations 4
smoothSolver:  Solving for Uy, Initial residual = 0.0235965, Final residual = 9.3284e-10, No Iterations 5
FDICPCG:  Solving for p, Initial residual = 0.0145212, Final residual = 9.99907e-09, No Iterations 1065
time step continuity errors : sum local = 1.00364e-18, global = -1.70503e-20, cumulative = -8.28541e-20
ExecutionTime = 1945.25 s  ClockTime = 1950 s

Time = 0.0001575

Courant Number mean: 2.72765e-08 max: 0.00112888
Solve momentum predictor
smoothSolver:  Solving for Ux, Initial residual = 0.000517917, Final residual = 5.5037e-10, No Iterations 4
smoothSolver:  Solving for Uy, Initial residual = 0.0236173, Final residual = 9.33812e-10, No Iterations 5
FDICPCG:  Solving for p, Initial residual = 0.0143625, Final residual = 9.99626e-09, No Iterations 1090
time step continuity errors : sum local = 1.01114e-18, global = -8.17171e-21, cumulative = -9.10258e-20
ExecutionTime = 1947.71 s  ClockTime = 1952 s

Time = 0.000158

Courant Number mean: 2.74564e-08 max: 0.00113793
Solve momentum predictor
smoothSolver:  Solving for Ux, Initial residual = 0.000518223, Final residual = 5.50759e-10, No Iterations 4
smoothSolver:  Solving for Uy, Initial residual = 0.0236351, Final residual = 9.34423e-10, No Iterations 5
FDICPCG:  Solving for p, Initial residual = 0.0141132, Final residual = 9.85558e-09, No Iterations 1056
time step continuity errors : sum local = 1.00425e-18, global = -2.11305e-20, cumulative = -1.12156e-19
ExecutionTime = 1950.06 s  ClockTime = 1955 s

Time = 0.0001585

Courant Number mean: 2.76374e-08 max: 0.00114704
Solve momentum predictor
smoothSolver:  Solving for Ux, Initial residual = 0.000518373, Final residual = 5.50908e-10, No Iterations 4
smoothSolver:  Solving for Uy, Initial residual = 0.023637, Final residual = 9.34639e-10, No Iterations 5
FDICPCG:  Solving for p, Initial residual = 0.0139715, Final residual = 9.91669e-09, No Iterations 1085
time step continuity errors : sum local = 1.01766e-18, global = -5.86195e-21, cumulative = -1.18018e-19
ExecutionTime = 1952.57 s  ClockTime = 1957 s

Time = 0.000159

Courant Number mean: 2.78196e-08 max: 0.00115621
Solve momentum predictor
smoothSolver:  Solving for Ux, Initial residual = 0.000518234, Final residual = 5.50827e-10, No Iterations 4
smoothSolver:  Solving for Uy, Initial residual = 0.0236363, Final residual = 9.34503e-10, No Iterations 5
FDICPCG:  Solving for p, Initial residual = 0.0137407, Final residual = 9.98202e-09, No Iterations 1051
time step continuity errors : sum local = 1.03124e-18, global = -2.21452e-20, cumulative = -1.40163e-19
ExecutionTime = 1954.95 s  ClockTime = 1959 s

Time = 0.0001595

Courant Number mean: 2.80029e-08 max: 0.00116544
Solve momentum predictor
smoothSolver:  Solving for Ux, Initial residual = 0.000517968, Final residual = 5.50514e-10, No Iterations 4
smoothSolver:  Solving for Uy, Initial residual = 0.0236196, Final residual = 9.33982e-10, No Iterations 5
FDICPCG:  Solving for p, Initial residual = 0.0136121, Final residual = 9.97951e-09, No Iterations 1057
time step continuity errors : sum local = 1.03766e-18, global = -1.61771e-20, cumulative = -1.56341e-19
ExecutionTime = 1957.32 s  ClockTime = 1962 s

Time = 0.00016

Courant Number mean: 2.81871e-08 max: 0.00117471
Solve momentum predictor
smoothSolver:  Solving for Ux, Initial residual = 0.000517394, Final residual = 5.49977e-10, No Iterations 4
smoothSolver:  Solving for Uy, Initial residual = 0.0236009, Final residual = 9.3312e-10, No Iterations 5
FDICPCG:  Solving for p, Initial residual = 0.0133979, Final residual = 9.97352e-09, No Iterations 1047
time step continuity errors : sum local = 1.04334e-18, global = -2.23739e-20, cumulative = -1.78714e-19
ExecutionTime = 1959.99 s  ClockTime = 1964 s

Time = 0.0001605

Courant Number mean: 2.83723e-08 max: 0.00118401
Solve momentum predictor
smoothSolver:  Solving for Ux, Initial residual = 0.00051673, Final residual = 5.49215e-10, No Iterations 4
smoothSolver:  Solving for Uy, Initial residual = 0.0235663, Final residual = 9.31884e-10, No Iterations 5
FDICPCG:  Solving for p, Initial residual = 0.0132785, Final residual = 9.82365e-09, No Iterations 1050
time step continuity errors : sum local = 1.03367e-18, global = -1.99448e-20, cumulative = -1.98659e-19
ExecutionTime = 1963.16 s  ClockTime = 1968 s

Time = 0.000161

Courant Number mean: 2.85583e-08 max: 0.00119336
Solve momentum predictor
smoothSolver:  Solving for Ux, Initial residual = 0.000515737, Final residual = 5.48237e-10, No Iterations 4
smoothSolver:  Solving for Uy, Initial residual = 0.0235301, Final residual = 9.30317e-10, No Iterations 5
FDICPCG:  Solving for p, Initial residual = 0.0130774, Final residual = 9.77565e-09, No Iterations 1044
time step continuity errors : sum local = 1.03422e-18, global = -1.94803e-20, cumulative = -2.18139e-19
ExecutionTime = 1965.58 s  ClockTime = 1970 s

Time = 0.0001615

Courant Number mean: 2.8745e-08 max: 0.00120273
Solve momentum predictor
smoothSolver:  Solving for Ux, Initial residual = 0.00051468, Final residual = 5.47042e-10, No Iterations 4
smoothSolver:  Solving for Uy, Initial residual = 0.0234781, Final residual = 9.28388e-10, No Iterations 5
FDICPCG:  Solving for p, Initial residual = 0.0129666, Final residual = 9.86857e-09, No Iterations 1045
time step continuity errors : sum local = 1.0495e-18, global = -1.82779e-20, cumulative = -2.36417e-19
ExecutionTime = 1967.95 s  ClockTime = 1972 s

Time = 0.000162

Courant Number mean: 2.89324e-08 max: 0.00121212
Solve momentum predictor
smoothSolver:  Solving for Ux, Initial residual = 0.00051329, Final residual = 5.45637e-10, No Iterations 4
smoothSolver:  Solving for Uy, Initial residual = 0.023425, Final residual = 9.26138e-10, No Iterations 5
FDICPCG:  Solving for p, Initial residual = 0.0127813, Final residual = 9.82637e-09, No Iterations 1038
time step continuity errors : sum local = 1.05005e-18, global = -1.70691e-20, cumulative = -2.53487e-19
ExecutionTime = 1970.33 s  ClockTime = 1975 s

Time = 0.0001625

Courant Number mean: 2.91203e-08 max: 0.00122153
Solve momentum predictor
smoothSolver:  Solving for Ux, Initial residual = 0.000511849, Final residual = 5.44024e-10, No Iterations 4
smoothSolver:  Solving for Uy, Initial residual = 0.0233561, Final residual = 9.23538e-10, No Iterations 5
FDICPCG:  Solving for p, Initial residual = 0.0126727, Final residual = 9.84169e-09, No Iterations 1038
time step continuity errors : sum local = 1.0565e-18, global = -1.54771e-20, cumulative = -2.68964e-19
ExecutionTime = 1972.68 s  ClockTime = 1977 s

Time = 0.000163

Courant Number mean: 2.93088e-08 max: 0.00123095
Solve momentum predictor
smoothSolver:  Solving for Ux, Initial residual = 0.00051008, Final residual = 5.42211e-10, No Iterations 4
smoothSolver:  Solving for Uy, Initial residual = 0.0232866, Final residual = 9.20629e-10, No Iterations 5
FDICPCG:  Solving for p, Initial residual = 0.0124939, Final residual = 9.71874e-09, No Iterations 1026
time step continuity errors : sum local = 1.04769e-18, global = -1.80697e-20, cumulative = -2.87033e-19
ExecutionTime = 1974.99 s  ClockTime = 1980 s

Time = 0.0001635

Courant Number mean: 2.94976e-08 max: 0.00124038
Solve momentum predictor
smoothSolver:  Solving for Ux, Initial residual = 0.000508269, Final residual = 5.40196e-10, No Iterations 4
smoothSolver:  Solving for Uy, Initial residual = 0.0232016, Final residual = 9.17383e-10, No Iterations 5
FDICPCG:  Solving for p, Initial residual = 0.0124039, Final residual = 9.89256e-09, No Iterations 1022
time step continuity errors : sum local = 1.07067e-18, global = -1.84677e-20, cumulative = -3.05501e-19
ExecutionTime = 1977.32 s  ClockTime = 1982 s

Time = 0.000164

Courant Number mean: 2.96868e-08 max: 0.00125019
Solve momentum predictor
smoothSolver:  Solving for Ux, Initial residual = 0.000506137, Final residual = 5.37989e-10, No Iterations 4
smoothSolver:  Solving for Uy, Initial residual = 0.0231162, Final residual = 9.1384e-10, No Iterations 5
FDICPCG:  Solving for p, Initial residual = 0.012232, Final residual = 9.94771e-09, No Iterations 997
time step continuity errors : sum local = 1.0805e-18, global = -8.47308e-21, cumulative = -3.13974e-19
ExecutionTime = 1979.61 s  ClockTime = 1984 s

Time = 0.0001645

Courant Number mean: 2.98762e-08 max: 0.00126022
Solve momentum predictor
smoothSolver:  Solving for Ux, Initial residual = 0.000503971, Final residual = 5.35591e-10, No Iterations 4
smoothSolver:  Solving for Uy, Initial residual = 0.0230158, Final residual = 9.09972e-10, No Iterations 5
FDICPCG:  Solving for p, Initial residual = 0.0121544, Final residual = 9.9852e-09, No Iterations 985
time step continuity errors : sum local = 1.08822e-18, global = -1.75318e-20, cumulative = -3.31506e-19
ExecutionTime = 1981.86 s  ClockTime = 1986 s

Time = 0.000165

Courant Number mean: 3.00657e-08 max: 0.00127016
Solve momentum predictor
smoothSolver:  Solving for Ux, Initial residual = 0.000501493, Final residual = 5.33008e-10, No Iterations 4
smoothSolver:  Solving for Uy, Initial residual = 0.0229152, Final residual = 9.05821e-10, No Iterations 5
FDICPCG:  Solving for p, Initial residual = 0.0119948, Final residual = 9.93103e-09, No Iterations 874
time step continuity errors : sum local = 1.08555e-18, global = 3.05765e-20, cumulative = -3.00929e-19
ExecutionTime = 1983.84 s  ClockTime = 1988 s

Time = 0.0001655

Courant Number mean: 3.02553e-08 max: 0.00128002
Solve momentum predictor
smoothSolver:  Solving for Ux, Initial residual = 0.000498989, Final residual = 5.30243e-10, No Iterations 4
smoothSolver:  Solving for Uy, Initial residual = 0.0228, Final residual = 9.01357e-10, No Iterations 5
FDICPCG:  Solving for p, Initial residual = 0.0119239, Final residual = 9.95449e-09, No Iterations 939
time step continuity errors : sum local = 1.09111e-18, global = 8.67005e-21, cumulative = -2.92259e-19
ExecutionTime = 1986.06 s  ClockTime = 1991 s

Time = 0.000166

Courant Number mean: 3.04449e-08 max: 0.00128977
Solve momentum predictor
smoothSolver:  Solving for Ux, Initial residual = 0.00049618, Final residual = 5.27302e-10, No Iterations 4
smoothSolver:  Solving for Uy, Initial residual = 0.0226848, Final residual = 8.96623e-10, No Iterations 5
FDICPCG:  Solving for p, Initial residual = 0.0117747, Final residual = 9.93462e-09, No Iterations 946
time step continuity errors : sum local = 1.09154e-18, global = -4.78645e-21, cumulative = -2.97046e-19
ExecutionTime = 1988.19 s  ClockTime = 1993 s

Time = 0.0001665

Courant Number mean: 3.06343e-08 max: 0.00129942
Solve momentum predictor
smoothSolver:  Solving for Ux, Initial residual = 0.000493354, Final residual = 5.24187e-10, No Iterations 4
smoothSolver:  Solving for Uy, Initial residual = 0.0225554, Final residual = 8.91591e-10, No Iterations 5
FDICPCG:  Solving for p, Initial residual = 0.0117111, Final residual = 9.8657e-09, No Iterations 971
time step continuity errors : sum local = 1.0863e-18, global = -1.3081e-20, cumulative = -3.10127e-19
ExecutionTime = 1990.38 s  ClockTime = 1995 s

Time = 0.000167

Courant Number mean: 3.08236e-08 max: 0.00130895
Solve momentum predictor
smoothSolver:  Solving for Ux, Initial residual = 0.000490232, Final residual = 5.20907e-10, No Iterations 4
smoothSolver:  Solving for Uy, Initial residual = 0.0224264, Final residual = 8.86301e-10, No Iterations 5
FDICPCG:  Solving for p, Initial residual = 0.0115994, Final residual = 9.82422e-09, No Iterations 958
time step continuity errors : sum local = 1.08368e-18, global = -4.14717e-21, cumulative = -3.14274e-19
ExecutionTime = 1992.54 s  ClockTime = 1997 s

Time = 0.0001675

Courant Number mean: 3.10125e-08 max: 0.00131837
Solve momentum predictor
smoothSolver:  Solving for Ux, Initial residual = 0.000487101, Final residual = 5.17461e-10, No Iterations 4
smoothSolver:  Solving for Uy, Initial residual = 0.0222835, Final residual = 8.80725e-10, No Iterations 5
FDICPCG:  Solving for p, Initial residual = 0.0116918, Final residual = 9.89544e-09, No Iterations 988
time step continuity errors : sum local = 1.09323e-18, global = -1.12617e-20, cumulative = -3.25536e-19
ExecutionTime = 1994.76 s  ClockTime = 1999 s

Time = 0.000168

Courant Number mean: 3.12011e-08 max: 0.00132766
Solve momentum predictor
smoothSolver:  Solving for Ux, Initial residual = 0.000483681, Final residual = 5.13858e-10, No Iterations 4
smoothSolver:  Solving for Uy, Initial residual = 0.0221412, Final residual = 8.74904e-10, No Iterations 5
FDICPCG:  Solving for p, Initial residual = 0.0117691, Final residual = 9.78322e-09, No Iterations 985
time step continuity errors : sum local = 1.08215e-18, global = 1.73867e-21, cumulative = -3.23797e-19
ExecutionTime = 1997.02 s  ClockTime = 2002 s

Time = 0.0001685

Courant Number mean: 3.13893e-08 max: 0.00133682
Solve momentum predictor
smoothSolver:  Solving for Ux, Initial residual = 0.000480262, Final residual = 5.10098e-10, No Iterations 4
smoothSolver:  Solving for Uy, Initial residual = 0.0219854, Final residual = 8.68811e-10, No Iterations 5
FDICPCG:  Solving for p, Initial residual = 0.0119515, Final residual = 9.90136e-09, No Iterations 1000
time step continuity errors : sum local = 1.09627e-18, global = -1.04817e-20, cumulative = -3.34279e-19
ExecutionTime = 1999.28 s  ClockTime = 2004 s

Time = 0.000169

Courant Number mean: 3.15768e-08 max: 0.00134584
Solve momentum predictor
smoothSolver:  Solving for Ux, Initial residual = 0.000476562, Final residual = 5.06191e-10, No Iterations 4
smoothSolver:  Solving for Uy, Initial residual = 0.0218305, Final residual = 8.62485e-10, No Iterations 5
FDICPCG:  Solving for p, Initial residual = 0.012095, Final residual = 9.9907e-09, No Iterations 1002
time step continuity errors : sum local = 1.10685e-18, global = 4.72531e-21, cumulative = -3.29553e-19
ExecutionTime = 2001.6 s  ClockTime = 2006 s

Time = 0.0001695

Courant Number mean: 3.17638e-08 max: 0.00135472
Solve momentum predictor
smoothSolver:  Solving for Ux, Initial residual = 0.000472872, Final residual = 5.02137e-10, No Iterations 4
smoothSolver:  Solving for Uy, Initial residual = 0.0216624, Final residual = 8.55899e-10, No Iterations 5
FDICPCG:  Solving for p, Initial residual = 0.0123343, Final residual = 9.86741e-09, No Iterations 1012
time step continuity errors : sum local = 1.09359e-18, global = -2.23375e-21, cumulative = -3.31787e-19
ExecutionTime = 2003.83 s  ClockTime = 2008 s

Time = 0.00017

Courant Number mean: 3.195e-08 max: 0.00136345
Solve momentum predictor
smoothSolver:  Solving for Ux, Initial residual = 0.000468907, Final residual = 4.97943e-10, No Iterations 4
smoothSolver:  Solving for Uy, Initial residual = 0.0214955, Final residual = 8.49092e-10, No Iterations 5
FDICPCG:  Solving for p, Initial residual = 0.0124979, Final residual = 9.752e-09, No Iterations 1021
time step continuity errors : sum local = 1.08084e-18, global = 1.53796e-20, cumulative = -3.16408e-19
ExecutionTime = 2006.59 s  ClockTime = 2011 s

Time = 0.0001705

Courant Number mean: 3.21354e-08 max: 0.00137202
Solve momentum predictor
smoothSolver:  Solving for Ux, Initial residual = 0.000464962, Final residual = 4.93611e-10, No Iterations 4
smoothSolver:  Solving for Uy, Initial residual = 0.0213159, Final residual = 8.4204e-10, No Iterations 5
FDICPCG:  Solving for p, Initial residual = 0.0127573, Final residual = 9.92851e-09, No Iterations 1022
time step continuity errors : sum local = 1.10017e-18, global = 6.53569e-21, cumulative = -3.09872e-19
ExecutionTime = 2009.45 s  ClockTime = 2014 s

Time = 0.000171

Courant Number mean: 3.232e-08 max: 0.00138043
Solve momentum predictor
smoothSolver:  Solving for Ux, Initial residual = 0.00046075, Final residual = 4.89149e-10, No Iterations 4
smoothSolver:  Solving for Uy, Initial residual = 0.0211377, Final residual = 8.3478e-10, No Iterations 5
FDICPCG:  Solving for p, Initial residual = 0.012938, Final residual = 9.81829e-09, No Iterations 1033
time step continuity errors : sum local = 1.08737e-18, global = 1.50938e-20, cumulative = -2.94778e-19
ExecutionTime = 2011.85 s  ClockTime = 2016 s

Time = 0.0001715

Courant Number mean: 3.25035e-08 max: 0.00138868
Solve momentum predictor
smoothSolver:  Solving for Ux, Initial residual = 0.000456567, Final residual = 4.84557e-10, No Iterations 4
smoothSolver:  Solving for Uy, Initial residual = 0.0209471, Final residual = 8.27289e-10, No Iterations 5
FDICPCG:  Solving for p, Initial residual = 0.0131966, Final residual = 9.8752e-09, No Iterations 1031
time step continuity errors : sum local = 1.09279e-18, global = 8.17487e-21, cumulative = -2.86603e-19
ExecutionTime = 2014.25 s  ClockTime = 2019 s

Time = 0.000172

Courant Number mean: 3.26861e-08 max: 0.00139676
Solve momentum predictor
smoothSolver:  Solving for Ux, Initial residual = 0.000452123, Final residual = 4.79843e-10, No Iterations 4
smoothSolver:  Solving for Uy, Initial residual = 0.0207583, Final residual = 8.19603e-10, No Iterations 5
FDICPCG:  Solving for p, Initial residual = 0.0133817, Final residual = 9.97041e-09, No Iterations 1040
time step continuity errors : sum local = 1.10211e-18, global = 1.70507e-20, cumulative = -2.69552e-19
ExecutionTime = 2016.58 s  ClockTime = 2021 s

Time = 0.0001725

Courant Number mean: 3.28675e-08 max: 0.00140465
Solve momentum predictor
smoothSolver:  Solving for Ux, Initial residual = 0.000447718, Final residual = 4.75009e-10, No Iterations 4
smoothSolver:  Solving for Uy, Initial residual = 0.0205574, Final residual = 8.117e-10, No Iterations 5
FDICPCG:  Solving for p, Initial residual = 0.0136603, Final residual = 9.98915e-09, No Iterations 1038
time step continuity errors : sum local = 1.10265e-18, global = 1.11656e-20, cumulative = -2.58387e-19
ExecutionTime = 2018.93 s  ClockTime = 2024 s

Time = 0.000173

Courant Number mean: 3.30476e-08 max: 0.00141251
Solve momentum predictor
smoothSolver:  Solving for Ux, Initial residual = 0.00044306, Final residual = 4.70063e-10, No Iterations 4
smoothSolver:  Solving for Uy, Initial residual = 0.0203586, Final residual = 8.03614e-10, No Iterations 5
